3-7-dimethyloctyl_acetate.xyz
 OpenBabel09282218273D

 38 37  0  0  1  0  0  0  0  0999 V2000
   -0.3354   -0.9409   -6.1415 C   0  0  0  0  0  0  0  0  0  0  0  0
   -0.5237    0.0730   -5.0102 C   0  0  0  0  0  0  0  0  0  0  0  0
    0.0376   -0.5016   -3.6962 C   0  0  0  0  0  0  0  0  0  0  0  0
    0.1298    1.4011   -5.3948 C   0  0  0  0  0  0  0  0  0  0  0  0
   -0.2393    0.3827   -2.4749 C   0  0  0  0  0  0  0  0  0  0  0  0
    0.2347   -0.2951   -1.1838 C   0  0  0  0  0  0  0  0  0  0  0  0
   -0.1407    0.4780    0.0999 C   0  0  1  0  0  0  0  0  0  0  0  0
    0.2136   -0.3859    1.3273 C   0  0  0  0  0  0  0  0  0  0  0  0
    0.5461    1.8458    0.1581 C   0  0  0  0  0  0  0  0  0  0  0  0
   -0.2701    0.1912    2.6559 C   0  0  0  0  0  0  0  0  0  0  0  0
   -0.0555   -1.4642    5.9202 C   0  0  0  0  0  0  0  0  0  0  0  0
   -0.3894   -0.3935    4.9274 C   0  0  0  0  0  0  0  0  0  0  0  0
    0.0083   -0.7732    3.6823 O   0  0  0  0  0  0  0  0  0  0  0  0
   -0.9387    0.6625    5.2071 O   0  0  0  0  0  0  0  0  0  0  0  0
    0.7256   -1.1507   -6.3149 H   0  0  0  0  0  0  0  0  0  0  0  0
   -0.7641   -0.5653   -7.0767 H   0  0  0  0  0  0  0  0  0  0  0  0
   -0.8340   -1.8867   -5.9040 H   0  0  0  0  0  0  0  0  0  0  0  0
   -1.6009    0.2431   -4.8881 H   0  0  0  0  0  0  0  0  0  0  0  0
    1.1193   -0.6606   -3.7921 H   0  0  0  0  0  0  0  0  0  0  0  0
   -0.4107   -1.4888   -3.5245 H   0  0  0  0  0  0  0  0  0  0  0  0
    1.2187    1.3035   -5.4607 H   0  0  0  0  0  0  0  0  0  0  0  0
   -0.2374    1.7473   -6.3671 H   0  0  0  0  0  0  0  0  0  0  0  0
   -0.0997    2.1845   -4.6663 H   0  0  0  0  0  0  0  0  0  0  0  0
    0.2758    1.3401   -2.5962 H   0  0  0  0  0  0  0  0  0  0  0  0
   -1.3138    0.5898   -2.4079 H   0  0  0  0  0  0  0  0  0  0  0  0
    1.3221   -0.4380   -1.2257 H   0  0  0  0  0  0  0  0  0  0  0  0
   -0.2118   -1.2967   -1.1342 H   0  0  0  0  0  0  0  0  0  0  0  0
   -1.2264    0.6400    0.0973 H   0  0  0  0  0  0  0  0  0  0  0  0
    1.2984   -0.5478    1.3786 H   0  0  0  0  0  0  0  0  0  0  0  0
   -0.2241   -1.3863    1.2100 H   0  0  0  0  0  0  0  0  0  0  0  0
    1.6362    1.7407    0.1577 H   0  0  0  0  0  0  0  0  0  0  0  0
    0.2584    2.4000    1.0563 H   0  0  0  0  0  0  0  0  0  0  0  0
    0.2644    2.4720   -0.6934 H   0  0  0  0  0  0  0  0  0  0  0  0
    0.2596    1.1200    2.8914 H   0  0  0  0  0  0  0  0  0  0  0  0
   -1.3493    0.3783    2.6149 H   0  0  0  0  0  0  0  0  0  0  0  0
    1.0251   -1.6265    5.9410 H   0  0  0  0  0  0  0  0  0  0  0  0
   -0.3797   -1.1489    6.9161 H   0  0  0  0  0  0  0  0  0  0  0  0
   -0.5789   -2.3876    5.6599 H   0  0  0  0  0  0  0  0  0  0  0  0
  1 17  1  0  0  0  0
  1  2  1  0  0  0  0
  2 18  1  0  0  0  0
  2  3  1  0  0  0  0
  3 20  1  0  0  0  0
  3  5  1  0  0  0  0
  4  2  1  0  0  0  0
  4 23  1  0  0  0  0
  5 25  1  0  0  0  0
  5  6  1  0  0  0  0
  6 27  1  0  0  0  0
  6  7  1  0  0  0  0
  7 28  1  6  0  0  0
  7  9  1  0  0  0  0
  7  8  1  0  0  0  0
  8 29  1  0  0  0  0
  8 10  1  0  0  0  0
  9 32  1  0  0  0  0
 10 34  1  0  0  0  0
 10 13  1  0  0  0  0
 11 36  1  0  0  0  0
 11 37  1  0  0  0  0
 12 14  2  0  0  0  0
 12 11  1  0  0  0  0
 13 12  1  0  0  0  0
 15  1  1  0  0  0  0
 16  1  1  0  0  0  0
 19  3  1  0  0  0  0
 21  4  1  0  0  0  0
 22  4  1  0  0  0  0
 24  5  1  0  0  0  0
 26  6  1  0  0  0  0
 30  8  1  0  0  0  0
 31  9  1  0  0  0  0
 33  9  1  0  0  0  0
 35 10  1  0  0  0  0
 38 11  1  0  0  0  0
M  END
$$$$
