benzene.xyz
 OpenBabel09232221453D

 12 12  0  0  0  0  0  0  0  0999 V2000
   -8.0428    0.3242    1.5168 C   0  0  0  0  0  0  0  0  0  0  0  0
   -8.3305    1.5870    0.9989 C   0  0  0  0  0  0  0  0  0  0  0  0
   -7.0517    0.1777    2.4872 C   0  0  0  0  0  0  0  0  0  0  0  0
   -6.3483    1.2939    2.9398 C   0  0  0  0  0  0  0  0  0  0  0  0
   -6.6360    2.5566    2.4219 C   0  0  0  0  0  0  0  0  0  0  0  0
   -7.6271    2.7032    1.4514 C   0  0  0  0  0  0  0  0  0  0  0  0
   -7.8513    3.6870    1.0480 H   0  0  0  0  0  0  0  0  0  0  0  0
   -9.1027    1.7011    0.2428 H   0  0  0  0  0  0  0  0  0  0  0  0
   -8.5909   -0.5454    1.1642 H   0  0  0  0  0  0  0  0  0  0  0  0
   -6.8276   -0.8062    2.8908 H   0  0  0  0  0  0  0  0  0  0  0  0
   -5.5760    1.1797    3.6958 H   0  0  0  0  0  0  0  0  0  0  0  0
   -6.0879    3.4263    2.7745 H   0  0  0  0  0  0  0  0  0  0  0  0
  1  3  1  0  0  0  0
  2  6  1  0  0  0  0
  2  1  2  0  0  0  0
  3 10  1  0  0  0  0
  3  4  2  0  0  0  0
  4 11  1  0  0  0  0
  5 12  1  0  0  0  0
  5  4  1  0  0  0  0
  6  5  2  0  0  0  0
  7  6  1  0  0  0  0
  8  2  1  0  0  0  0
  9  1  1  0  0  0  0
M  END
$$$$
