glucosepane.xyz
 OpenBabel09222217013D

 31 32  0  0  1  0  0  0  0  0999 V2000
    1.0871   -0.2436   -1.1066 C   0  0  0  0  0  0  0  0  0  0  0  0
    0.7520   -1.4736   -0.3992 N   0  0  0  0  0  0  0  0  0  0  0  0
   -0.6030   -1.4960    0.1476 C   0  0  0  0  0  0  0  0  0  0  0  0
   -1.1407   -2.7644    0.8382 C   0  0  1  0  0  0  0  0  0  0  0  0
   -2.4829   -2.4707    1.2019 O   0  0  0  0  0  0  0  0  0  0  0  0
   -1.1170   -4.0357   -0.0278 C   0  0  1  0  0  0  0  0  0  0  0  0
   -1.7416   -3.7554   -1.2868 O   0  0  0  0  0  0  0  0  0  0  0  0
    0.2592   -4.7101   -0.1774 C   0  0  0  0  0  0  0  0  0  0  0  0
    1.4884   -3.8647    0.2039 C   0  0  1  0  0  0  0  0  0  0  0  0
    2.7130   -4.5480   -0.1894 N   0  0  0  0  0  0  0  0  0  0  0  0
    3.3073   -3.7040   -0.9757 C   0  0  0  0  0  0  0  0  0  0  0  0
    4.4921   -3.9293   -1.5957 N   0  0  0  0  0  0  0  0  0  0  0  0
    5.1262   -5.2306   -1.5628 C   0  0  0  0  0  0  0  0  0  0  0  0
    2.6973   -2.4578   -1.2213 N   0  0  0  0  0  0  0  0  0  0  0  0
    1.6027   -2.5158   -0.5113 C   0  0  0  0  0  0  0  0  0  0  0  0
    0.6513    0.6078   -0.5771 H   0  0  0  0  0  0  0  0  0  0  0  0
    0.6983   -0.2522   -2.1337 H   0  0  0  0  0  0  0  0  0  0  0  0
    2.1706   -0.1416   -1.1534 H   0  0  0  0  0  0  0  0  0  0  0  0
   -0.7070   -0.6749    0.8671 H   0  0  0  0  0  0  0  0  0  0  0  0
   -1.3059   -1.2736   -0.6689 H   0  0  0  0  0  0  0  0  0  0  0  0
   -0.6133   -2.9467    1.7795 H   0  0  0  0  0  0  0  0  0  0  0  0
   -2.9989   -2.5356    0.3873 H   0  0  0  0  0  0  0  0  0  0  0  0
   -1.8104   -4.7278    0.4602 H   0  0  0  0  0  0  0  0  0  0  0  0
   -1.0751   -3.3801   -1.8729 H   0  0  0  0  0  0  0  0  0  0  0  0
    0.3737   -5.0378   -1.2165 H   0  0  0  0  0  0  0  0  0  0  0  0
    0.2950   -5.6193    0.4294 H   0  0  0  0  0  0  0  0  0  0  0  0
    1.4833   -3.6904    1.2895 H   0  0  0  0  0  0  0  0  0  0  0  0
    4.7126   -3.2908   -2.3391 H   0  0  0  0  0  0  0  0  0  0  0  0
    4.4007   -6.0296   -1.7551 H   0  0  0  0  0  0  0  0  0  0  0  0
    5.9133   -5.2623   -2.3201 H   0  0  0  0  0  0  0  0  0  0  0  0
    5.5798   -5.4259   -0.5842 H   0  0  0  0  0  0  0  0  0  0  0  0
  1 16  1  0  0  0  0
  1  2  1  0  0  0  0
  2  3  1  0  0  0  0
  3  4  1  0  0  0  0
  3 19  1  0  0  0  0
  4  5  1  0  0  0  0
  4 21  1  1  0  0  0
  6 23  1  1  0  0  0
  6  4  1  0  0  0  0
  7  6  1  0  0  0  0
  8  6  1  0  0  0  0
  8  9  1  0  0  0  0
  8 26  1  0  0  0  0
  9 27  1  1  0  0  0
 10  9  1  0  0  0  0
 11 10  2  0  0  0  0
 12 13  1  0  0  0  0
 12 11  1  0  0  0  0
 13 31  1  0  0  0  0
 14 11  1  0  0  0  0
 14 15  2  0  0  0  0
 15  2  1  0  0  0  0
 15  9  1  0  0  0  0
 17  1  1  0  0  0  0
 18  1  1  0  0  0  0
 20  3  1  0  0  0  0
 22  5  1  0  0  0  0
 24  7  1  0  0  0  0
 25  8  1  0  0  0  0
 28 12  1  0  0  0  0
 29 13  1  0  0  0  0
 30 13  1  0  0  0  0
M  END
$$$$
