PA_hexamer.xyz
 OpenBabel09272221053D

611635  0  0  1  0  0  0  0  0999 V2000
    5.7391   23.5296    8.2865 O   0  0  0  0  0  0  0  0  0  0  0  0
    5.0633   23.2482    8.7324 H   0  0  0  0  0  0  0  0  0  0  0  0
    9.0447   20.9171    6.1241 O   0  0  0  0  0  0  0  0  0  0  0  0
    9.5864   18.5688    5.8202 O   0  0  0  0  0  0  0  0  0  0  0  0
    9.3324   19.4192    5.9609 H   0  0  0  0  0  0  0  0  0  0  0  0
    7.5174   14.5630    7.1139 O   0  0  0  0  0  0  0  0  0  0  0  0
    5.6473   13.9622    8.3753 O   0  0  0  0  0  0  0  0  0  0  0  0
    6.3554   14.1189    7.9734 H   0  0  0  0  0  0  0  0  0  0  0  0
    2.5162   16.5717   10.7179 O   0  0  0  0  0  0  0  0  0  0  0  0
    1.9856   18.8098   11.0487 O   0  0  0  0  0  0  0  0  0  0  0  0
    2.0837   17.9771   10.9454 H   0  0  0  0  0  0  0  0  0  0  0  0
    3.9327   22.8765    9.5614 O   0  0  0  0  0  0  0  0  0  0  0  0
    3.8778   15.1378    9.4699 N   0  0  0  0  0  0  0  0  0  0  0  0
    4.0763   14.7183   10.1945 H   0  0  0  0  0  0  0  0  0  0  0  0
    4.5686   14.8591    8.2973 C   0  0  0  0  0  0  0  0  0  0  0  0
    4.2502   15.5384    7.1246 C   0  0  0  0  0  0  0  0  0  0  0  0
    3.2399   16.4934    7.1300 C   0  0  0  0  0  0  0  0  0  0  0  0
    3.0273   16.9479    6.3457 H   0  0  0  0  0  0  0  0  0  0  0  0
    2.5515   16.7720    8.3027 C   0  0  0  0  0  0  0  0  0  0  0  0
    2.8704   16.0928    9.4726 C   0  0  0  0  0  0  0  0  0  0  0  0
    2.8327   20.9520   10.2499 N   0  0  0  0  0  0  0  0  0  0  0  0
    2.9401   21.2084   11.0635 H   0  0  0  0  0  0  0  0  0  0  0  0
    3.2175   21.7851    9.2037 C   0  0  0  0  0  0  0  0  0  0  0  0
    3.0422   21.3729    7.8885 C   0  0  0  0  0  0  0  0  0  0  0  0
    2.4874   20.1276    7.6168 C   0  0  0  0  0  0  0  0  0  0  0  0
    2.3717   19.8518    6.7367 H   0  0  0  0  0  0  0  0  0  0  0  0
    2.1050   19.2945    8.6631 C   0  0  0  0  0  0  0  0  0  0  0  0
    2.2780   19.7096    9.9783 C   0  0  0  0  0  0  0  0  0  0  0  0
    6.2108   17.3236    5.0833 C   0  0  0  0  0  0  0  0  0  0  0  0
    5.4248   17.5688    4.6526 H   0  0  0  0  0  0  0  0  0  0  0  0
    6.2860   16.1131    5.7610 C   0  0  0  0  0  0  0  0  0  0  0  0
    7.4630   15.7474    6.4038 C   0  0  0  0  0  0  0  0  0  0  0  0
    8.5649   16.5921    6.3689 N   0  0  0  0  0  0  0  0  0  0  0  0
    9.2928   16.3650    6.7679 H   0  0  0  0  0  0  0  0  0  0  0  0
    8.4920   17.8025    5.6911 C   0  0  0  0  0  0  0  0  0  0  0  0
    7.3150   18.1683    5.0483 C   0  0  0  0  0  0  0  0  0  0  0  0
    7.2054   19.3903    4.7014 C   0  0  2  0  0  0  0  0  0  0  0  0
    8.1415   19.5987    4.4992 H   0  0  0  0  0  0  0  0  0  0  0  0
    7.7564   21.4367    6.1537 C   0  0  0  0  0  0  0  0  0  0  0  0
    7.4150   22.4324    7.0574 N   0  0  0  0  0  0  0  0  0  0  0  0
    8.0283   22.8492    7.4928 H   0  0  0  0  0  0  0  0  0  0  0  0
    6.0767   22.7575    7.2618 C   0  0  0  0  0  0  0  0  0  0  0  0
    5.0857   22.0869    6.5572 C   0  0  0  0  0  0  0  0  0  0  0  0
    5.4270   21.0884    5.6535 C   0  0  0  0  0  3  0  0  0  0  0  0
    4.7632   20.6388    5.1823 H   0  0  0  0  0  0  0  0  0  0  0  0
    6.7629   20.7633    5.4491 C   0  0  2  0  0  3  0  0  0  0  0  0
    3.7015   22.2698    6.8584 C   0  0  1  0  0  0  0  0  0  0  0  0
    3.6748   23.1557    7.2768 H   0  0  0  0  0  0  0  0  0  0  0  0
    1.6701   17.9302    8.3511 C   0  0  1  0  0  0  0  0  0  0  0  0
    1.1045   17.7181    9.1227 H   0  0  0  0  0  0  0  0  0  0  0  0
    4.1816   15.1407    4.6368 C   0  0  0  0  0  0  0  0  0  0  0  0
    4.7930   14.9453    3.9110 H   0  0  0  0  0  0  0  0  0  0  0  0
    3.8398   16.0369    4.4908 H   0  0  0  0  0  0  0  0  0  0  0  0
    2.9229   14.1015    4.5212 C   0  0  0  0  0  0  0  0  0  0  0  0
    2.3228   14.3222    5.2661 H   0  0  0  0  0  0  0  0  0  0  0  0
    3.4735   12.7343    4.8251 C   0  0  0  0  0  0  0  0  0  0  0  0
    3.1994   12.4678    5.7052 H   0  0  0  0  0  0  0  0  0  0  0  0
    4.4315   12.7597    4.7809 H   0  0  0  0  0  0  0  0  0  0  0  0
    3.1389   12.1063    4.1810 H   0  0  0  0  0  0  0  0  0  0  0  0
    2.1793   14.2031    3.4077 C   0  0  0  0  0  0  0  0  0  0  0  0
    2.5000   13.5806    2.7512 H   0  0  0  0  0  0  0  0  0  0  0  0
    2.2439   15.0963    3.0593 H   0  0  0  0  0  0  0  0  0  0  0  0
    1.2626   14.0069    3.6142 H   0  0  0  0  0  0  0  0  0  0  0  0
    0.6498   17.9186    7.1973 C   0  0  0  0  0  0  0  0  0  0  0  0
    0.4387   16.9869    7.0262 H   0  0  0  0  0  0  0  0  0  0  0  0
    1.1169   18.2443    6.4132 H   0  0  0  0  0  0  0  0  0  0  0  0
   -0.7158   18.6820    7.2564 C   0  0  0  0  0  0  0  0  0  0  0  0
   -0.4144   19.6123    7.3238 H   0  0  0  0  0  0  0  0  0  0  0  0
   -1.4812   18.5224    8.5501 C   0  0  0  0  0  0  0  0  0  0  0  0
   -2.3970   18.7725    8.4130 H   0  0  0  0  0  0  0  0  0  0  0  0
   -1.0913   19.0830    9.2231 H   0  0  0  0  0  0  0  0  0  0  0  0
   -1.4389   17.6049    8.8332 H   0  0  0  0  0  0  0  0  0  0  0  0
   -1.4711   18.7256    6.0838 C   0  0  0  0  0  0  0  0  0  0  0  0
   -1.8095   17.8473    5.8900 H   0  0  0  0  0  0  0  0  0  0  0  0
   -0.9198   19.0233    5.3581 H   0  0  0  0  0  0  0  0  0  0  0  0
   -2.2061   19.3320    6.1993 H   0  0  0  0  0  0  0  0  0  0  0  0
    2.8172   22.4382    5.6077 C   0  0  0  0  0  0  0  0  0  0  0  0
    2.7214   21.5594    5.2091 H   0  0  0  0  0  0  0  0  0  0  0  0
    1.9355   22.7001    5.9192 H   0  0  0  0  0  0  0  0  0  0  0  0
    3.1170   24.8416    5.0241 C   0  0  0  0  0  0  0  0  0  0  0  0
    3.5504   25.3897    4.3674 H   0  0  0  0  0  0  0  0  0  0  0  0
    3.5681   24.9350    5.8675 H   0  0  0  0  0  0  0  0  0  0  0  0
    2.2024   25.1163    5.1196 H   0  0  0  0  0  0  0  0  0  0  0  0
    3.1677   23.3293    4.5669 C   0  0  0  0  0  0  0  0  0  0  0  0
    4.0895   23.1286    4.3008 H   0  0  0  0  0  0  0  0  0  0  0  0
    2.3132   23.3845    3.2866 C   0  0  0  0  0  0  0  0  0  0  0  0
    1.7971   22.5784    3.2115 H   0  0  0  0  0  0  0  0  0  0  0  0
    2.8866   23.4701    2.5222 H   0  0  0  0  0  0  0  0  0  0  0  0
    1.7217   24.1398    3.3297 H   0  0  0  0  0  0  0  0  0  0  0  0
    4.9888   15.1552    5.9386 C   0  0  2  0  0  0  0  0  0  0  0  0
    5.3187   14.2437    6.0848 H   0  0  0  0  0  0  0  0  0  0  0  0
    9.4096   24.0028    7.9988 O   0  0  0  0  0  0  0  0  0  0  0  0
    8.7737   25.6080    9.8438 O   0  0  0  0  0  0  0  0  0  0  0  0
    8.9939   25.1149    9.2251 H   0  0  0  0  0  0  0  0  0  0  0  0
   10.7526   26.3366   13.9185 O   0  0  0  0  0  0  0  0  0  0  0  0
   12.5490   25.4948   15.1557 O   0  0  0  0  0  0  0  0  0  0  0  0
   12.0008   25.7347   14.7342 H   0  0  0  0  0  0  0  0  0  0  0  0
   15.8665   22.1102   14.2251 O   0  0  0  0  0  0  0  0  0  0  0  0
   16.2576   20.6559   12.5549 O   0  0  0  0  0  0  0  0  0  0  0  0
   16.1321   21.2297   13.1481 H   0  0  0  0  0  0  0  0  0  0  0  0
   14.3064   19.9244    8.3914 O   0  0  0  0  0  0  0  0  0  0  0  0
   12.5499   20.7140    7.0171 O   0  0  0  0  0  0  0  0  0  0  0  0
   13.1443   20.4290    7.3822 H   0  0  0  0  0  0  0  0  0  0  0  0
   11.0107   22.3801    7.2403 N   0  0  0  0  0  0  0  0  0  0  0  0
   10.3974   21.7893    7.1088 H   0  0  0  0  0  0  0  0  0  0  0  0
   10.6587   23.6747    7.6034 C   0  0  0  0  0  0  0  0  0  0  0  0
   11.6476   24.6268    7.8186 C   0  0  0  0  0  0  0  0  0  0  0  0
   12.9868   24.2843    7.6679 C   0  0  0  0  0  0  0  0  0  0  0  0
   13.6496   24.9221    7.8115 H   0  0  0  0  0  0  0  0  0  0  0  0
   13.3388   22.9897    7.3048 C   0  0  0  0  0  0  0  0  0  0  0  0
   12.3493   22.0347    7.0924 C   0  0  0  0  0  0  0  0  0  0  0  0
    9.8724   26.1247   11.7883 N   0  0  0  0  0  0  0  0  0  0  0  0
    9.1264   25.9456   12.1766 H   0  0  0  0  0  0  0  0  0  0  0  0
   10.9825   26.4759   12.5495 C   0  0  0  0  0  0  0  0  0  0  0  0
   12.1909   26.7662   11.9228 C   0  0  2  0  0  3  0  0  0  0  0  0
   12.2888   26.6994   10.5377 C   0  0  0  0  0  0  0  0  0  0  0  0
   13.0955   26.8929   10.1191 H   0  0  0  0  0  0  0  0  0  0  0  0
   11.1781   26.3482    9.7792 C   0  0  0  0  0  0  0  0  0  0  0  0
    9.9702   26.0579   10.4032 C   0  0  1  0  0  3  0  0  0  0  0  0
   14.3416   23.9128   14.8195 N   0  0  0  0  0  0  0  0  0  0  0  0
   14.0758   23.5018   15.5288 H   0  0  0  0  0  0  0  0  0  0  0  0
   15.3535   23.3671   14.0395 C   0  0  0  0  0  0  0  0  0  0  0  0
   15.7818   24.0289   12.8964 C   0  0  0  0  0  0  0  0  0  0  0  0
   15.1964   25.2364   12.5307 C   0  0  0  0  0  0  0  0  0  0  0  0
   15.4830   25.6787   11.7651 H   0  0  0  0  0  0  0  0  0  0  0  0
   14.1822   25.7792   13.3106 C   0  0  0  0  0  0  0  0  0  0  0  0
   13.7557   25.1174   14.4564 C   0  0  0  0  0  0  0  0  0  0  0  0
   15.5355   20.2640   10.2553 N   0  0  0  0  0  0  0  0  0  0  0  0
   15.4311   19.4247   10.4170 H   0  0  0  0  0  0  0  0  0  0  0  0
   15.1757   20.7836    9.0181 C   0  0  0  0  0  0  0  0  0  0  0  0
   15.3453   22.1392    8.7572 C   0  0  0  0  0  0  0  0  0  0  0  0
   15.8772   22.9723    9.7335 C   0  0  0  0  0  0  0  0  0  0  0  0
   15.9905   23.8787    9.5603 H   0  0  0  0  0  0  0  0  0  0  0  0
   16.2394   22.4527   10.9707 C   0  0  0  0  0  0  0  0  0  0  0  0
   16.0674   21.0971   11.2316 C   0  0  0  0  0  0  0  0  0  0  0  0
   13.4177   26.9490   12.8104 C   0  0  1  0  0  0  0  0  0  0  0  0
   13.0438   27.3373   13.6288 H   0  0  0  0  0  0  0  0  0  0  0  0
   16.7612   23.3642   11.9148 C   0  0  1  0  0  0  0  0  0  0  0  0
   17.2901   22.7842   12.5015 H   0  0  0  0  0  0  0  0  0  0  0  0
   14.8157   22.5659    7.3748 C   0  0  2  0  0  0  0  0  0  0  0  0
   14.7899   21.7053    6.9054 H   0  0  0  0  0  0  0  0  0  0  0  0
   11.2131   26.0347    8.3645 C   0  0  1  0  0  0  0  0  0  0  0  0
   10.3060   26.1911    8.0262 H   0  0  0  0  0  0  0  0  0  0  0  0
   12.1127   27.1319    7.7271 C   0  0  0  0  0  0  0  0  0  0  0  0
   13.0076   27.0259    8.0881 H   0  0  0  0  0  0  0  0  0  0  0  0
   12.1660   26.9558    6.7757 H   0  0  0  0  0  0  0  0  0  0  0  0
   11.7256   28.5310    7.9019 C   0  0  0  0  0  0  0  0  0  0  0  0
   11.8033   28.7639    8.8506 H   0  0  0  0  0  0  0  0  0  0  0  0
   12.6795   29.3960    7.1031 C   0  0  0  0  0  0  0  0  0  0  0  0
   12.2315   30.1998    6.8323 H   0  0  0  0  0  0  0  0  0  0  0  0
   12.9735   28.9149    6.3262 H   0  0  0  0  0  0  0  0  0  0  0  0
   13.4389   29.6199    7.6469 H   0  0  0  0  0  0  0  0  0  0  0  0
   10.4509   28.9606    7.4232 C   0  0  0  0  0  0  0  0  0  0  0  0
    9.9050   28.1948    7.2328 H   0  0  0  0  0  0  0  0  0  0  0  0
   10.5678   29.4786    6.6244 H   0  0  0  0  0  0  0  0  0  0  0  0
   10.0234   29.4992    8.0943 H   0  0  0  0  0  0  0  0  0  0  0  0
   14.2011   28.1334   12.1837 C   0  0  0  0  0  0  0  0  0  0  0  0
   14.6261   27.8491   11.3608 H   0  0  0  0  0  0  0  0  0  0  0  0
   13.5915   28.8594   11.9781 H   0  0  0  0  0  0  0  0  0  0  0  0
   15.2694   28.6152   13.1842 C   0  0  0  0  0  0  0  0  0  0  0  0
   15.7903   27.7921   13.2795 H   0  0  0  0  0  0  0  0  0  0  0  0
   14.9131   28.8707   14.6608 C   0  0  0  0  0  0  0  0  0  0  0  0
   15.7186   28.9838   15.1694 H   0  0  0  0  0  0  0  0  0  0  0  0
   14.4202   28.1210   15.0048 H   0  0  0  0  0  0  0  0  0  0  0  0
   14.3764   29.6636   14.7290 H   0  0  0  0  0  0  0  0  0  0  0  0
   16.3950   29.5818   12.6033 C   0  0  0  0  0  0  0  0  0  0  0  0
   15.9825   30.3535   12.2054 H   0  0  0  0  0  0  0  0  0  0  0  0
   16.9060   29.1155   11.9370 H   0  0  0  0  0  0  0  0  0  0  0  0
   16.9765   29.8622   13.3136 H   0  0  0  0  0  0  0  0  0  0  0  0
   17.8479   24.2901   11.2800 C   0  0  0  0  0  0  0  0  0  0  0  0
   17.3892   24.8918   10.6731 H   0  0  0  0  0  0  0  0  0  0  0  0
   18.2096   24.8354   11.9958 H   0  0  0  0  0  0  0  0  0  0  0  0
   18.9412   23.7444   10.5780 C   0  0  0  0  0  0  0  0  0  0  0  0
   18.5554   23.3489    9.7693 H   0  0  0  0  0  0  0  0  0  0  0  0
   19.7443   22.6646   11.1913 C   0  0  0  0  0  0  0  0  0  0  0  0
   20.2043   22.1775   10.5042 H   0  0  0  0  0  0  0  0  0  0  0  0
   19.1627   22.0678   11.6707 H   0  0  0  0  0  0  0  0  0  0  0  0
   20.3826   23.0441   11.7984 H   0  0  0  0  0  0  0  0  0  0  0  0
   19.8756   24.8591   10.0724 C   0  0  0  0  0  0  0  0  0  0  0  0
   19.3567   25.6350    9.8476 H   0  0  0  0  0  0  0  0  0  0  0  0
   20.3469   24.5535    9.2932 H   0  0  0  0  0  0  0  0  0  0  0  0
   20.5072   25.0848   10.7594 H   0  0  0  0  0  0  0  0  0  0  0  0
   16.0016   23.2538    6.6728 C   0  0  0  0  0  0  0  0  0  0  0  0
   16.3725   23.9545    7.2307 H   0  0  0  0  0  0  0  0  0  0  0  0
   16.7006   22.6120    6.4692 H   0  0  0  0  0  0  0  0  0  0  0  0
   15.4064   23.8402    5.3791 C   0  0  0  0  0  0  0  0  0  0  0  0
   14.5957   24.3426    5.6041 H   0  0  0  0  0  0  0  0  0  0  0  0
   15.0600   22.7894    4.2737 C   0  0  0  0  0  0  0  0  0  0  0  0
   14.7668   23.2427    3.4804 H   0  0  0  0  0  0  0  0  0  0  0  0
   14.3628   22.2106    4.5891 H   0  0  0  0  0  0  0  0  0  0  0  0
   15.8418   22.2673    4.0723 H   0  0  0  0  0  0  0  0  0  0  0  0
   16.4513   24.8184    4.8089 C   0  0  0  0  0  0  0  0  0  0  0  0
   17.1855   24.3213    4.4382 H   0  0  0  0  0  0  0  0  0  0  0  0
   16.7736   25.3888    5.5099 H   0  0  0  0  0  0  0  0  0  0  0  0
   16.0481   25.3524    4.1207 H   0  0  0  0  0  0  0  0  0  0  0  0
   15.8895   17.6080   10.5216 O   0  0  0  0  0  0  0  0  0  0  0  0
   16.2512   16.8548   12.5979 O   0  0  0  0  0  0  0  0  0  0  0  0
   16.0282   17.0324   11.8293 H   0  0  0  0  0  0  0  0  0  0  0  0
   14.1637   13.4948   15.2606 O   0  0  0  0  0  0  0  0  0  0  0  0
   12.4205   11.9012   15.0642 O   0  0  0  0  0  0  0  0  0  0  0  0
   12.9894   12.4797   15.2799 H   0  0  0  0  0  0  0  0  0  0  0  0
    9.3129   11.1204   11.7372 O   0  0  0  0  0  0  0  0  0  0  0  0
    8.8621   12.0899    9.5506 O   0  0  0  0  0  0  0  0  0  0  0  0
    9.0767   11.7516   10.2836 H   0  0  0  0  0  0  0  0  0  0  0  0
   10.9046   15.3874    6.8880 O   0  0  0  0  0  0  0  0  0  0  0  0
   12.7581   16.8069    7.1139 O   0  0  0  0  0  0  0  0  0  0  0  0
   12.1759   16.2692    7.0569 H   0  0  0  0  0  0  0  0  0  0  0  0
    9.9380   13.6139    8.0391 N   0  0  0  0  0  0  0  0  0  0  0  0
    9.1866   14.0288    7.9829 H   0  0  0  0  0  0  0  0  0  0  0  0
   11.0778   14.1596    7.4582 C   0  0  0  0  0  0  0  0  0  0  0  0
   12.2915   13.4919    7.5496 C   0  0  0  0  0  0  0  0  0  0  0  0
   12.3702   12.2786    8.2220 C   0  0  0  0  0  0  0  0  0  0  0  0
   13.1820   11.8309    8.2841 H   0  0  0  0  0  0  0  0  0  0  0  0
   11.2304   11.7329    8.8029 C   0  0  0  0  0  0  0  0  0  0  0  0
   10.0143   12.4005    8.7115 C   0  0  0  0  0  0  0  0  0  0  0  0
   14.4038   17.2365    8.7169 N   0  0  0  0  0  0  0  0  0  0  0  0
   14.1504   18.0564    8.7739 H   0  0  0  0  0  0  0  0  0  0  0  0
   13.8045   16.3889    7.7917 C   0  0  0  0  0  0  0  0  0  0  0  0
   14.2126   15.0623    7.7002 C   0  0  0  0  0  0  0  0  0  0  0  0
   15.2176   14.5834    8.5340 C   0  0  0  0  0  0  0  0  0  0  0  0
   15.4900   13.6976    8.4730 H   0  0  0  0  0  0  0  0  0  0  0  0
   15.8145   15.4339    9.4592 C   0  0  0  0  0  0  0  0  0  0  0  0
   15.4064   16.7575    9.5506 C   0  0  0  0  0  0  0  0  0  0  0  0
   15.4876   15.1175   13.9642 N   0  0  0  0  0  0  0  0  0  0  0  0
   15.3642   15.7209   14.5648 H   0  0  0  0  0  0  0  0  0  0  0  0
   15.0274   13.8228   14.1713 C   0  0  0  0  0  0  0  0  0  0  0  0
   15.2258   12.8504   13.2004 C   0  0  0  0  0  0  0  0  0  0  0  0
   15.8831   13.1726   12.0170 C   0  0  0  0  0  0  0  0  0  0  0  0
   16.0160   12.5213   11.3674 H   0  0  0  0  0  0  0  0  0  0  0  0
   16.3434   14.4673   11.8099 C   0  0  0  0  0  0  0  0  0  0  0  0
   16.1450   15.4405   12.7808 C   0  0  0  0  0  0  0  0  0  0  0  0
   10.9348   11.3120   13.4801 N   0  0  0  0  0  0  0  0  0  0  0  0
   10.3024   11.4301   14.0505 H   0  0  0  0  0  0  0  0  0  0  0  0
   12.2616   11.4281   13.8781 C   0  0  0  0  0  0  0  0  0  0  0  0
   13.2835   11.2394   12.9556 C   0  0  0  0  0  0  0  0  0  0  0  0
   12.9787   10.9288   11.6350 C   0  0  0  0  0  0  0  0  0  0  0  0
   13.6638   10.8018   11.0188 H   0  0  0  0  0  0  0  0  0  0  0  0
   11.6543   10.8127   11.2370 C   0  0  0  0  0  0  0  0  0  0  0  0
   10.6300   11.0043   12.1595 C   0  0  0  0  0  0  0  0  0  0  0  0
   11.3263   10.5369    9.6932 C   0  0  2  0  0  0  0  0  0  0  0  0
   10.4165   10.1742    9.7035 H   0  0  0  0  0  0  0  0  0  0  0  0
   16.7671   14.9723   10.6076 C   0  0  1  0  0  0  0  0  0  0  0  0
   17.2471   15.7915   10.8554 H   0  0  0  0  0  0  0  0  0  0  0  0
   13.4777   14.0928    6.9391 C   0  0  1  0  0  0  0  0  0  0  0  0
   13.0856   14.6470    6.2313 H   0  0  0  0  0  0  0  0  0  0  0  0
   14.3183   13.1959    6.1833 C   0  0  0  0  0  0  0  0  0  0  0  0
   14.6598   12.5485    6.8217 H   0  0  0  0  0  0  0  0  0  0  0  0
   13.7238   12.7061    5.5929 H   0  0  0  0  0  0  0  0  0  0  0  0
   15.4473   13.5993    5.3764 C   0  0  0  0  0  0  0  0  0  0  0  0
   16.0033   14.0633    6.0362 H   0  0  0  0  0  0  0  0  0  0  0  0
   15.0961   14.7459    4.4109 C   0  0  0  0  0  0  0  0  0  0  0  0
   15.7841   14.8279    3.7464 H   0  0  0  0  0  0  0  0  0  0  0  0
   15.0263   15.5685    4.9018 H   0  0  0  0  0  0  0  0  0  0  0  0
   14.2577   14.5586    3.9816 H   0  0  0  0  0  0  0  0  0  0  0  0
   16.4300   12.7053    4.7390 C   0  0  0  0  0  0  0  0  0  0  0  0
   16.1507   12.5117    3.8412 H   0  0  0  0  0  0  0  0  0  0  0  0
   16.4906   11.8889    5.2391 H   0  0  0  0  0  0  0  0  0  0  0  0
   17.2882   13.1352    4.7214 H   0  0  0  0  0  0  0  0  0  0  0  0
   17.8316   14.1276    9.8841 C   0  0  0  0  0  0  0  0  0  0  0  0
   17.3840   13.3442    9.5274 H   0  0  0  0  0  0  0  0  0  0  0  0
   18.1459   14.6436    9.1270 H   0  0  0  0  0  0  0  0  0  0  0  0
   19.0730   13.6371   10.6534 C   0  0  0  0  0  0  0  0  0  0  0  0
   18.6736   13.0966   11.3678 H   0  0  0  0  0  0  0  0  0  0  0  0
   19.7981   14.7082   11.4279 C   0  0  0  0  0  0  0  0  0  0  0  0
   20.0933   14.3488   12.2689 H   0  0  0  0  0  0  0  0  0  0  0  0
   19.2035   15.4447   11.5871 H   0  0  0  0  0  0  0  0  0  0  0  0
   20.5560   15.0093   10.9245 H   0  0  0  0  0  0  0  0  0  0  0  0
   19.9560   12.6269    9.9460 C   0  0  0  0  0  0  0  0  0  0  0  0
   20.7358   13.0707    9.6039 H   0  0  0  0  0  0  0  0  0  0  0  0
   19.4697   12.2293    9.2210 H   0  0  0  0  0  0  0  0  0  0  0  0
   20.2219   11.9452   10.5667 H   0  0  0  0  0  0  0  0  0  0  0  0
   14.6767   11.3613   13.4586 C   0  0  1  0  0  0  0  0  0  0  0  0
   14.6389   11.2400   14.4296 H   0  0  0  0  0  0  0  0  0  0  0  0
   15.6212   10.2699   12.9153 C   0  0  0  0  0  0  0  0  0  0  0  0
   15.6581   10.3782   11.9521 H   0  0  0  0  0  0  0  0  0  0  0  0
   16.5092   10.4672   13.2535 H   0  0  0  0  0  0  0  0  0  0  0  0
   15.3865    8.9898   13.1573 C   0  0  0  0  0  0  0  0  0  0  0  0
   14.4990    8.9861   12.7415 H   0  0  0  0  0  0  0  0  0  0  0  0
   14.8536    8.4905   14.6500 C   0  0  0  0  0  0  0  0  0  0  0  0
   14.9601    9.2049   15.2836 H   0  0  0  0  0  0  0  0  0  0  0  0
   15.3645    7.7308   14.9356 H   0  0  0  0  0  0  0  0  0  0  0  0
   13.9251    8.2501   14.5945 H   0  0  0  0  0  0  0  0  0  0  0  0
   16.0711    7.7590   12.0734 C   0  0  0  0  0  0  0  0  0  0  0  0
   16.7645    7.2801   12.5334 H   0  0  0  0  0  0  0  0  0  0  0  0
   16.4375    8.1857   11.2962 H   0  0  0  0  0  0  0  0  0  0  0  0
   15.3805    7.1477   11.8090 H   0  0  0  0  0  0  0  0  0  0  0  0
   12.1928    9.3846    9.0665 C   0  0  0  0  0  0  0  0  0  0  0  0
   13.1177    9.6790    9.0486 H   0  0  0  0  0  0  0  0  0  0  0  0
   12.1459    8.6172    9.6560 H   0  0  0  0  0  0  0  0  0  0  0  0
   11.8134    8.9201    7.6464 C   0  0  0  0  0  0  0  0  0  0  0  0
   11.8408    9.7077    7.0629 H   0  0  0  0  0  0  0  0  0  0  0  0
   10.4449    8.5021    7.7432 C   0  0  0  0  0  0  0  0  0  0  0  0
   10.4046    7.6369    8.1568 H   0  0  0  0  0  0  0  0  0  0  0  0
   10.0638    8.4543    6.8632 H   0  0  0  0  0  0  0  0  0  0  0  0
    9.9535    9.1339    8.2716 H   0  0  0  0  0  0  0  0  0  0  0  0
   12.9204    7.9825    7.2026 C   0  0  0  0  0  0  0  0  0  0  0  0
   13.0510    7.3039    7.8679 H   0  0  0  0  0  0  0  0  0  0  0  0
   13.7348    8.4804    7.0896 H   0  0  0  0  0  0  0  0  0  0  0  0
   12.6779    7.5738    6.3693 H   0  0  0  0  0  0  0  0  0  0  0  0
    6.4570   19.6835    3.0769 C   0  0  0  0  0  0  0  0  0  0  0  0
    5.4902   19.6524    3.1472 H   0  0  0  0  0  0  0  0  0  0  0  0
    6.7099   20.5620    2.7495 H   0  0  0  0  0  0  0  0  0  0  0  0
    8.4249   18.6501    1.6272 C   0  0  0  0  0  0  0  0  0  0  0  0
    8.6906   17.7985    1.2759 H   0  0  0  0  0  0  0  0  0  0  0  0
    8.9815   18.8758    2.3770 H   0  0  0  0  0  0  0  0  0  0  0  0
    8.5176   19.3216    0.9475 H   0  0  0  0  0  0  0  0  0  0  0  0
    6.9542   18.5833    2.0844 C   0  0  0  0  0  0  0  0  0  0  0  0
    6.7798   17.6990    2.4699 H   0  0  0  0  0  0  0  0  0  0  0  0
    6.0407   18.7894    0.8607 C   0  0  0  0  0  0  0  0  0  0  0  0
    5.6294   19.6548    0.9132 H   0  0  0  0  0  0  0  0  0  0  0  0
    5.3615   18.1114    0.8523 H   0  0  0  0  0  0  0  0  0  0  0  0
    6.5631   18.7303    0.0582 H   0  0  0  0  0  0  0  0  0  0  0  0
    8.8401   24.0028   18.8969 O   0  0  0  0  0  0  0  0  0  0  0  0
    9.4759   25.6080   17.0518 O   0  0  0  0  0  0  0  0  0  0  0  0
    9.2558   25.1149   17.6706 H   0  0  0  0  0  0  0  0  0  0  0  0
    7.4971   26.3366   12.9771 O   0  0  0  0  0  0  0  0  0  0  0  0
    5.7007   25.4948   11.7399 O   0  0  0  0  0  0  0  0  0  0  0  0
    6.2489   25.7347   12.1614 H   0  0  0  0  0  0  0  0  0  0  0  0
    2.3832   22.1102   12.6705 O   0  0  0  0  0  0  0  0  0  0  0  0
    1.9920   20.6559   14.3407 O   0  0  0  0  0  0  0  0  0  0  0  0
    2.1175   21.2297   13.7475 H   0  0  0  0  0  0  0  0  0  0  0  0
    3.9432   19.9244   18.5042 O   0  0  0  0  0  0  0  0  0  0  0  0
    5.6998   20.7140   19.8785 O   0  0  0  0  0  0  0  0  0  0  0  0
    5.1054   20.4290   19.5134 H   0  0  0  0  0  0  0  0  0  0  0  0
    7.2390   22.3801   19.6553 N   0  0  0  0  0  0  0  0  0  0  0  0
    7.8523   21.7893   19.7868 H   0  0  0  0  0  0  0  0  0  0  0  0
    7.5910   23.6747   19.2922 C   0  0  0  0  0  0  0  0  0  0  0  0
    6.6020   24.6268   19.0771 C   0  0  0  0  0  0  0  0  0  0  0  0
    5.2629   24.2843   19.2277 C   0  0  0  0  0  0  0  0  0  0  0  0
    4.6001   24.9221   19.0841 H   0  0  0  0  0  0  0  0  0  0  0  0
    4.9109   22.9897   19.5908 C   0  0  0  0  0  0  0  0  0  0  0  0
    5.9004   22.0347   19.8032 C   0  0  0  0  0  0  0  0  0  0  0  0
    8.3773   26.1247   15.1073 N   0  0  0  0  0  0  0  0  0  0  0  0
    9.1233   25.9456   14.7190 H   0  0  0  0  0  0  0  0  0  0  0  0
    7.2672   26.4759   14.3461 C   0  0  0  0  0  0  0  0  0  0  0  0
    6.0587   26.7662   14.9728 C   0  0  0  0  0  0  0  0  0  0  0  0
    5.9609   26.6994   16.3579 C   0  0  0  0  0  0  0  0  0  0  0  0
    5.1542   26.8929   16.7765 H   0  0  0  0  0  0  0  0  0  0  0  0
    7.0716   26.3482   17.1164 C   0  0  0  0  0  0  0  0  0  0  0  0
    8.2795   26.0579   16.4924 C   0  0  0  0  0  0  0  0  0  0  0  0
    3.9080   23.9128   12.0761 N   0  0  0  0  0  0  0  0  0  0  0  0
    4.1739   23.5018   11.3668 H   0  0  0  0  0  0  0  0  0  0  0  0
    2.8962   23.3671   12.8561 C   0  0  0  0  0  0  0  0  0  0  0  0
    2.4679   24.0289   13.9992 C   0  0  0  0  0  0  0  0  0  0  0  0
    3.0533   25.2364   14.3649 C   0  0  0  0  0  0  0  0  0  0  0  0
    2.7667   25.6787   15.1305 H   0  0  0  0  0  0  0  0  0  0  0  0
    4.0675   25.7792   13.5850 C   0  0  0  0  0  0  0  0  0  0  0  0
    4.4940   25.1174   12.4392 C   0  0  0  0  0  0  0  0  0  0  0  0
    2.7142   20.2640   16.6403 N   0  0  0  0  0  0  0  0  0  0  0  0
    2.8186   19.4247   16.4786 H   0  0  0  0  0  0  0  0  0  0  0  0
    3.0740   20.7836   17.8775 C   0  0  0  0  0  0  0  0  0  0  0  0
    2.9043   22.1392   18.1384 C   0  0  0  0  0  0  0  0  0  0  0  0
    2.3725   22.9723   17.1621 C   0  0  0  0  0  0  0  0  0  0  0  0
    2.2592   23.8787   17.3354 H   0  0  0  0  0  0  0  0  0  0  0  0
    2.0103   22.4527   15.9249 C   0  0  0  0  0  0  0  0  0  0  0  0
    2.1823   21.0971   15.6640 C   0  0  0  0  0  0  0  0  0  0  0  0
    4.8320   26.9490   14.0852 C   0  0  1  0  0  0  0  0  0  0  0  0
    5.2059   27.3373   13.2668 H   0  0  0  0  0  0  0  0  0  0  0  0
    1.4884   23.3642   14.9809 C   0  0  1  0  0  0  0  0  0  0  0  0
    0.9596   22.7842   14.3941 H   0  0  0  0  0  0  0  0  0  0  0  0
    3.4339   22.5659   19.5208 C   0  0  2  0  0  0  0  0  0  0  0  0
    3.4598   21.7053   19.9902 H   0  0  0  0  0  0  0  0  0  0  0  0
    7.0365   26.0347   18.5311 C   0  0  1  0  0  0  0  0  0  0  0  0
    7.9436   26.1911   18.8694 H   0  0  0  0  0  0  0  0  0  0  0  0
    6.1369   27.1319   19.1685 C   0  0  0  0  0  0  0  0  0  0  0  0
    5.2420   27.0259   18.8075 H   0  0  0  0  0  0  0  0  0  0  0  0
    6.0837   26.9558   20.1199 H   0  0  0  0  0  0  0  0  0  0  0  0
    6.5241   28.5310   18.9937 C   0  0  0  0  0  0  0  0  0  0  0  0
    6.4463   28.7639   18.0450 H   0  0  0  0  0  0  0  0  0  0  0  0
    5.5701   29.3960   19.7925 C   0  0  0  0  0  0  0  0  0  0  0  0
    6.0181   30.1998   20.0633 H   0  0  0  0  0  0  0  0  0  0  0  0
    5.2761   28.9149   20.5694 H   0  0  0  0  0  0  0  0  0  0  0  0
    4.8108   29.6199   19.2488 H   0  0  0  0  0  0  0  0  0  0  0  0
    7.7988   28.9606   19.4724 C   0  0  0  0  0  0  0  0  0  0  0  0
    8.3447   28.1948   19.6628 H   0  0  0  0  0  0  0  0  0  0  0  0
    7.6819   29.4786   20.2712 H   0  0  0  0  0  0  0  0  0  0  0  0
    8.2263   29.4992   18.8013 H   0  0  0  0  0  0  0  0  0  0  0  0
    4.0485   28.1334   14.7119 C   0  0  0  0  0  0  0  0  0  0  0  0
    3.6236   27.8491   15.5348 H   0  0  0  0  0  0  0  0  0  0  0  0
    4.6582   28.8594   14.9175 H   0  0  0  0  0  0  0  0  0  0  0  0
    2.9802   28.6152   13.7114 C   0  0  0  0  0  0  0  0  0  0  0  0
    2.4594   27.7921   13.6161 H   0  0  0  0  0  0  0  0  0  0  0  0
    3.3366   28.8707   12.2348 C   0  0  0  0  0  0  0  0  0  0  0  0
    2.5311   28.9838   11.7262 H   0  0  0  0  0  0  0  0  0  0  0  0
    3.8295   28.1210   11.8908 H   0  0  0  0  0  0  0  0  0  0  0  0
    3.8733   29.6636   12.1667 H   0  0  0  0  0  0  0  0  0  0  0  0
    1.8547   29.5818   14.2923 C   0  0  0  0  0  0  0  0  0  0  0  0
    2.2672   30.3535   14.6902 H   0  0  0  0  0  0  0  0  0  0  0  0
    1.3437   29.1155   14.9586 H   0  0  0  0  0  0  0  0  0  0  0  0
    1.2732   29.8622   13.5820 H   0  0  0  0  0  0  0  0  0  0  0  0
    0.4018   24.2901   15.6156 C   0  0  0  0  0  0  0  0  0  0  0  0
    0.8604   24.8918   16.2225 H   0  0  0  0  0  0  0  0  0  0  0  0
    0.0401   24.8354   14.8998 H   0  0  0  0  0  0  0  0  0  0  0  0
   -0.6915   23.7444   16.3176 C   0  0  0  0  0  0  0  0  0  0  0  0
   -0.3057   23.3489   17.1263 H   0  0  0  0  0  0  0  0  0  0  0  0
   -1.4946   22.6646   15.7043 C   0  0  0  0  0  0  0  0  0  0  0  0
   -1.9547   22.1775   16.3914 H   0  0  0  0  0  0  0  0  0  0  0  0
   -0.9131   22.0678   15.2249 H   0  0  0  0  0  0  0  0  0  0  0  0
   -2.1330   23.0441   15.0973 H   0  0  0  0  0  0  0  0  0  0  0  0
   -1.6259   24.8591   16.8232 C   0  0  0  0  0  0  0  0  0  0  0  0
   -1.1070   25.6350   17.0480 H   0  0  0  0  0  0  0  0  0  0  0  0
   -2.0972   24.5535   17.6024 H   0  0  0  0  0  0  0  0  0  0  0  0
   -2.2575   25.0848   16.1362 H   0  0  0  0  0  0  0  0  0  0  0  0
    2.2481   23.2538   20.2228 C   0  0  0  0  0  0  0  0  0  0  0  0
    1.8771   23.9545   19.6649 H   0  0  0  0  0  0  0  0  0  0  0  0
    1.5491   22.6120   20.4264 H   0  0  0  0  0  0  0  0  0  0  0  0
    2.8433   23.8402   21.5165 C   0  0  0  0  0  0  0  0  0  0  0  0
    3.6540   24.3426   21.2916 H   0  0  0  0  0  0  0  0  0  0  0  0
    3.1897   22.7894   22.6219 C   0  0  0  0  0  0  0  0  0  0  0  0
    3.4829   23.2427   23.4152 H   0  0  0  0  0  0  0  0  0  0  0  0
    3.8868   22.2106   22.3066 H   0  0  0  0  0  0  0  0  0  0  0  0
    2.4079   22.2673   22.8233 H   0  0  0  0  0  0  0  0  0  0  0  0
    1.7983   24.8184   22.0867 C   0  0  0  0  0  0  0  0  0  0  0  0
    1.0642   24.3213   22.4574 H   0  0  0  0  0  0  0  0  0  0  0  0
    1.4761   25.3888   21.3857 H   0  0  0  0  0  0  0  0  0  0  0  0
    2.2016   25.3524   22.7749 H   0  0  0  0  0  0  0  0  0  0  0  0
    2.3601   17.6080   16.3741 O   0  0  0  0  0  0  0  0  0  0  0  0
    1.9985   16.8548   14.2977 O   0  0  0  0  0  0  0  0  0  0  0  0
    2.2215   17.0324   15.0664 H   0  0  0  0  0  0  0  0  0  0  0  0
    4.0860   13.4948   11.6350 O   0  0  0  0  0  0  0  0  0  0  0  0
    5.8292   11.9012   11.8314 O   0  0  0  0  0  0  0  0  0  0  0  0
    5.2602   12.4797   11.6157 H   0  0  0  0  0  0  0  0  0  0  0  0
    8.9368   11.1204   15.1584 O   0  0  0  0  0  0  0  0  0  0  0  0
    9.3875   12.0899   17.3450 O   0  0  0  0  0  0  0  0  0  0  0  0
    9.1730   11.7516   16.6120 H   0  0  0  0  0  0  0  0  0  0  0  0
    7.3451   15.3874   20.0076 O   0  0  0  0  0  0  0  0  0  0  0  0
    5.4916   16.8069   19.7817 O   0  0  0  0  0  0  0  0  0  0  0  0
    6.0738   16.2692   19.8387 H   0  0  0  0  0  0  0  0  0  0  0  0
    8.3117   13.6139   18.8565 N   0  0  0  0  0  0  0  0  0  0  0  0
    9.0631   14.0288   18.9128 H   0  0  0  0  0  0  0  0  0  0  0  0
    7.1719   14.1596   19.4375 C   0  0  0  0  0  0  0  0  0  0  0  0
    5.9582   13.4919   19.3460 C   0  0  0  0  0  0  0  0  0  0  0  0
    5.8795   12.2786   18.6736 C   0  0  0  0  0  0  0  0  0  0  0  0
    5.0677   11.8309   18.6115 H   0  0  0  0  0  0  0  0  0  0  0  0
    7.0193   11.7329   18.0927 C   0  0  0  0  0  0  0  0  0  0  0  0
    8.2354   12.4005   18.1841 C   0  0  0  0  0  0  0  0  0  0  0  0
    3.8459   17.2365   18.1787 N   0  0  0  0  0  0  0  0  0  0  0  0
    4.0992   18.0564   18.1217 H   0  0  0  0  0  0  0  0  0  0  0  0
    4.4452   16.3889   19.1040 C   0  0  0  0  0  0  0  0  0  0  0  0
    4.0371   15.0623   19.1954 C   0  0  0  0  0  0  0  0  0  0  0  0
    3.0320   14.5834   18.3616 C   0  0  0  0  0  0  0  0  0  0  0  0
    2.7597   13.6976   18.4226 H   0  0  0  0  0  0  0  0  0  0  0  0
    2.4351   15.4339   17.4364 C   0  0  0  0  0  0  0  0  0  0  0  0
    2.8432   16.7575   17.3450 C   0  0  0  0  0  0  0  0  0  0  0  0
    2.7621   15.1175   12.9314 N   0  0  0  0  0  0  0  0  0  0  0  0
    2.8855   15.7209   12.3309 H   0  0  0  0  0  0  0  0  0  0  0  0
    3.2223   13.8228   12.7243 C   0  0  0  0  0  0  0  0  0  0  0  0
    3.0239   12.8504   13.6952 C   0  0  2  0  0  3  0  0  0  0  0  0
    2.3665   13.1726   14.8787 C   0  0  0  0  0  0  0  0  0  0  0  0
    2.2337   12.5213   15.5282 H   0  0  0  0  0  0  0  0  0  0  0  0
    1.9063   14.4673   15.0858 C   0  0  0  0  0  0  0  0  0  0  0  0
    2.1047   15.4405   14.1148 C   0  0  1  0  0  3  0  0  0  0  0  0
    7.3149   11.3120   13.4155 N   0  0  0  0  0  0  0  0  0  0  0  0
    7.9473   11.4301   12.8452 H   0  0  0  0  0  0  0  0  0  0  0  0
    5.9881   11.4281   13.0175 C   0  0  0  0  0  0  0  0  0  0  0  0
    4.9661   11.2394   13.9400 C   0  0  0  0  0  0  0  0  0  0  0  0
    5.2709   10.9288   15.2606 C   0  0  0  0  0  0  0  0  0  0  0  0
    4.5858   10.8018   15.8768 H   0  0  0  0  0  0  0  0  0  0  0  0
    6.5953   10.8127   15.6586 C   0  0  0  0  0  0  0  0  0  0  0  0
    7.6197   11.0043   14.7361 C   0  0  0  0  0  0  0  0  0  0  0  0
    6.9234   10.5369   17.2024 C   0  0  2  0  0  0  0  0  0  0  0  0
    7.8332   10.1742   17.1921 H   0  0  0  0  0  0  0  0  0  0  0  0
    1.4825   14.9723   16.2880 C   0  0  1  0  0  0  0  0  0  0  0  0
    1.0025   15.7915   16.0402 H   0  0  0  0  0  0  0  0  0  0  0  0
    4.7720   14.0928   19.9565 C   0  0  1  0  0  0  0  0  0  0  0  0
    5.1640   14.6470   20.6643 H   0  0  0  0  0  0  0  0  0  0  0  0
    3.9313   13.1959   20.7123 C   0  0  0  0  0  0  0  0  0  0  0  0
    3.5898   12.5485   20.0739 H   0  0  0  0  0  0  0  0  0  0  0  0
    4.5258   12.7061   21.3028 H   0  0  0  0  0  0  0  0  0  0  0  0
    2.8024   13.5993   21.5192 C   0  0  0  0  0  0  0  0  0  0  0  0
    2.2464   14.0633   20.8594 H   0  0  0  0  0  0  0  0  0  0  0  0
    3.1536   14.7459   22.4847 C   0  0  0  0  0  0  0  0  0  0  0  0
    2.4656   14.8279   23.1492 H   0  0  0  0  0  0  0  0  0  0  0  0
    3.2233   15.5685   21.9938 H   0  0  0  0  0  0  0  0  0  0  0  0
    3.9920   14.5586   22.9140 H   0  0  0  0  0  0  0  0  0  0  0  0
    1.8196   12.7053   22.1566 C   0  0  0  0  0  0  0  0  0  0  0  0
    2.0989   12.5117   23.0544 H   0  0  0  0  0  0  0  0  0  0  0  0
    1.7590   11.8889   21.6565 H   0  0  0  0  0  0  0  0  0  0  0  0
    0.9614   13.1352   22.1742 H   0  0  0  0  0  0  0  0  0  0  0  0
    0.4181   14.1276   17.0115 C   0  0  0  0  0  0  0  0  0  0  0  0
    0.8657   13.3442   17.3682 H   0  0  0  0  0  0  0  0  0  0  0  0
    0.1037   14.6436   17.7686 H   0  0  0  0  0  0  0  0  0  0  0  0
   -0.8233   13.6371   16.2423 C   0  0  0  0  0  0  0  0  0  0  0  0
   -0.4240   13.0966   15.5278 H   0  0  0  0  0  0  0  0  0  0  0  0
   -1.5484   14.7082   15.4677 C   0  0  0  0  0  0  0  0  0  0  0  0
   -1.8437   14.3488   14.6267 H   0  0  0  0  0  0  0  0  0  0  0  0
   -0.9539   15.4447   15.3085 H   0  0  0  0  0  0  0  0  0  0  0  0
   -2.3063   15.0093   15.9711 H   0  0  0  0  0  0  0  0  0  0  0  0
   -1.7064   12.6269   16.9496 C   0  0  0  0  0  0  0  0  0  0  0  0
   -2.4861   13.0707   17.2917 H   0  0  0  0  0  0  0  0  0  0  0  0
   -1.2200   12.2293   17.6746 H   0  0  0  0  0  0  0  0  0  0  0  0
   -1.9723   11.9452   16.3289 H   0  0  0  0  0  0  0  0  0  0  0  0
    3.5729   11.3613   13.4370 C   0  0  1  0  0  0  0  0  0  0  0  0
    3.6108   11.2400   12.4660 H   0  0  0  0  0  0  0  0  0  0  0  0
    2.6284   10.2699   13.9803 C   0  0  0  0  0  0  0  0  0  0  0  0
    2.5915   10.3782   14.9436 H   0  0  0  0  0  0  0  0  0  0  0  0
    1.7405   10.4672   13.6421 H   0  0  0  0  0  0  0  0  0  0  0  0
    2.8631    8.9898   13.7383 C   0  0  0  0  0  0  0  0  0  0  0  0
    3.7506    8.9861   14.1541 H   0  0  0  0  0  0  0  0  0  0  0  0
    3.3961    8.4905   12.2456 C   0  0  0  0  0  0  0  0  0  0  0  0
    3.2896    9.2049   11.6120 H   0  0  0  0  0  0  0  0  0  0  0  0
    2.8852    7.7308   11.9600 H   0  0  0  0  0  0  0  0  0  0  0  0
    4.3245    8.2501   12.3011 H   0  0  0  0  0  0  0  0  0  0  0  0
    2.1786    7.7590   14.8222 C   0  0  0  0  0  0  0  0  0  0  0  0
    1.4852    7.2801   14.3622 H   0  0  0  0  0  0  0  0  0  0  0  0
    1.8122    8.1857   15.5994 H   0  0  0  0  0  0  0  0  0  0  0  0
    2.8691    7.1477   15.0866 H   0  0  0  0  0  0  0  0  0  0  0  0
    6.0568    9.3846   17.8291 C   0  0  0  0  0  0  0  0  0  0  0  0
    5.1320    9.6790   17.8470 H   0  0  0  0  0  0  0  0  0  0  0  0
    6.1038    8.6172   17.2396 H   0  0  0  0  0  0  0  0  0  0  0  0
    6.4363    8.9201   19.2492 C   0  0  0  0  0  0  0  0  0  0  0  0
    6.4088    9.7077   19.8327 H   0  0  0  0  0  0  0  0  0  0  0  0
    7.8048    8.5021   19.1524 C   0  0  0  0  0  0  0  0  0  0  0  0
    7.8451    7.6369   18.7388 H   0  0  0  0  0  0  0  0  0  0  0  0
    8.1859    8.4543   20.0324 H   0  0  0  0  0  0  0  0  0  0  0  0
    8.2962    9.1339   18.6240 H   0  0  0  0  0  0  0  0  0  0  0  0
    5.3293    7.9825   19.6930 C   0  0  0  0  0  0  0  0  0  0  0  0
    5.1987    7.3039   19.0278 H   0  0  0  0  0  0  0  0  0  0  0  0
    4.5149    8.4804   19.8061 H   0  0  0  0  0  0  0  0  0  0  0  0
    5.5718    7.5738   20.5263 H   0  0  0  0  0  0  0  0  0  0  0  0
   12.5106   23.5296   18.6091 O   0  0  0  0  0  0  0  0  0  0  0  0
   13.1864   23.2482   18.1632 H   0  0  0  0  0  0  0  0  0  0  0  0
    9.2050   20.9171   20.7715 O   0  0  0  0  0  0  0  0  0  0  0  0
    8.6632   18.5688   21.0754 O   0  0  0  0  0  0  0  0  0  0  0  0
    8.9173   19.4192   20.9347 H   0  0  0  0  0  0  0  0  0  0  0  0
   10.7323   14.5630   19.7817 O   0  0  0  0  0  0  0  0  0  0  0  0
   12.6023   13.9622   18.5203 O   0  0  0  0  0  0  0  0  0  0  0  0
   11.8942   14.1189   18.9222 H   0  0  0  0  0  0  0  0  0  0  0  0
   15.7334   16.5717   16.1777 O   0  0  0  0  0  0  0  0  0  0  0  0
   16.2641   18.8098   15.8469 O   0  0  0  0  0  0  0  0  0  0  0  0
   16.1660   17.9771   15.9502 H   0  0  0  0  0  0  0  0  0  0  0  0
   14.3169   22.8765   17.3342 O   0  0  0  0  0  0  0  0  0  0  0  0
   14.3719   15.1378   17.4257 N   0  0  0  0  0  0  0  0  0  0  0  0
   14.1734   14.7183   16.7011 H   0  0  0  0  0  0  0  0  0  0  0  0
   13.6811   14.8591   18.5983 C   0  0  1  0  0  3  0  0  0  0  0  0
   13.9995   15.5384   19.7710 C   0  0  0  0  0  0  0  0  0  0  0  0
   15.0098   16.4934   19.7656 C   0  0  0  0  0  0  0  0  0  0  0  0
   15.2223   16.9479   20.5499 H   0  0  0  0  0  0  0  0  0  0  0  0
   15.6982   16.7720   18.5929 C   0  0  1  0  0  3  0  0  0  0  0  0
   15.3792   16.0928   17.4230 C   0  0  0  0  0  0  0  0  0  0  0  0
   15.4170   20.9520   16.6457 N   0  0  0  0  0  0  0  0  0  0  0  0
   15.3096   21.2084   15.8321 H   0  0  0  0  0  0  0  0  0  0  0  0
   15.0322   21.7851   17.6919 C   0  0  0  0  0  0  0  0  0  0  0  0
   15.2075   21.3729   19.0071 C   0  0  0  0  0  0  0  0  0  0  0  0
   15.7622   20.1276   19.2788 C   0  0  0  0  0  0  0  0  0  0  0  0
   15.8780   19.8518   20.1590 H   0  0  0  0  0  0  0  0  0  0  0  0
   16.1446   19.2945   18.2325 C   0  0  0  0  0  0  0  0  0  0  0  0
   15.9717   19.7096   16.9173 C   0  0  0  0  0  0  0  0  0  0  0  0
   12.0389   17.3236   21.8123 C   0  0  0  0  0  0  0  0  0  0  0  0
   12.8249   17.5688   22.2430 H   0  0  0  0  0  0  0  0  0  0  0  0
   11.9637   16.1131   21.1346 C   0  0  0  0  0  0  0  0  0  0  0  0
   10.7866   15.7474   20.4918 C   0  0  0  0  0  0  0  0  0  0  0  0
    9.6848   16.5921   20.5267 N   0  0  0  0  0  0  0  0  0  0  0  0
    8.9569   16.3650   20.1277 H   0  0  0  0  0  0  0  0  0  0  0  0
    9.7576   17.8025   21.2045 C   0  0  0  0  0  0  0  0  0  0  0  0
   10.9347   18.1683   21.8473 C   0  0  0  0  0  0  0  0  0  0  0  0
   11.0442   19.3903   22.1943 C   0  0  0  0  0  3  0  0  0  0  0  0
   10.1082   19.5987   22.3964 H   0  0  0  0  0  0  0  0  0  0  0  0
   10.4933   21.4367   20.7419 C   0  0  0  0  0  0  0  0  0  0  0  0
   10.8347   22.4324   19.8382 N   0  0  0  0  0  0  0  0  0  0  0  0
   10.2213   22.8492   19.4028 H   0  0  0  0  0  0  0  0  0  0  0  0
   12.1730   22.7575   19.6338 C   0  0  0  0  0  0  0  0  0  0  0  0
   13.1640   22.0869   20.3385 C   0  0  0  0  0  0  0  0  0  0  0  0
   12.8226   21.0884   21.2422 C   0  0  0  0  0  3  0  0  0  0  0  0
   13.4864   20.6388   21.7133 H   0  0  0  0  0  0  0  0  0  0  0  0
   11.4867   20.7633   21.4466 C   0  0  2  0  0  3  0  0  0  0  0  0
   14.5482   22.2698   20.0372 C   0  0  1  0  0  0  0  0  0  0  0  0
   14.5748   23.1557   19.6188 H   0  0  0  0  0  0  0  0  0  0  0  0
   16.5795   17.9302   18.5445 C   0  0  1  0  0  0  0  0  0  0  0  0
   17.1452   17.7181   17.7729 H   0  0  0  0  0  0  0  0  0  0  0  0
   14.0681   15.1407   22.2588 C   0  0  0  0  0  0  0  0  0  0  0  0
   13.4566   14.9453   22.9846 H   0  0  0  0  0  0  0  0  0  0  0  0
   14.4098   16.0369   22.4049 H   0  0  0  0  0  0  0  0  0  0  0  0
   15.3267   14.1015   22.3745 C   0  0  0  0  0  0  0  0  0  0  0  0
   15.9269   14.3222   21.6296 H   0  0  0  0  0  0  0  0  0  0  0  0
   14.7762   12.7343   22.0705 C   0  0  0  0  0  0  0  0  0  0  0  0
   15.0503   12.4678   21.1904 H   0  0  0  0  0  0  0  0  0  0  0  0
   13.8182   12.7597   22.1148 H   0  0  0  0  0  0  0  0  0  0  0  0
   15.1108   12.1063   22.7147 H   0  0  0  0  0  0  0  0  0  0  0  0
   16.0704   14.2031   23.4879 C   0  0  0  0  0  0  0  0  0  0  0  0
   15.7497   13.5806   24.1445 H   0  0  0  0  0  0  0  0  0  0  0  0
   16.0058   15.0963   23.8363 H   0  0  0  0  0  0  0  0  0  0  0  0
   16.9871   14.0069   23.2815 H   0  0  0  0  0  0  0  0  0  0  0  0
   17.5999   17.9186   19.6983 C   0  0  0  0  0  0  0  0  0  0  0  0
   17.8110   16.9869   19.8694 H   0  0  0  0  0  0  0  0  0  0  0  0
   17.1327   18.2443   20.4824 H   0  0  0  0  0  0  0  0  0  0  0  0
   18.9655   18.6820   19.6392 C   0  0  0  0  0  0  0  0  0  0  0  0
   18.6641   19.6123   19.5718 H   0  0  0  0  0  0  0  0  0  0  0  0
   19.7309   18.5224   18.3455 C   0  0  0  0  0  0  0  0  0  0  0  0
   20.6467   18.7725   18.4826 H   0  0  0  0  0  0  0  0  0  0  0  0
   19.3409   19.0830   17.6725 H   0  0  0  0  0  0  0  0  0  0  0  0
   19.6886   17.6049   18.0624 H   0  0  0  0  0  0  0  0  0  0  0  0
   19.7208   18.7256   20.8118 C   0  0  0  0  0  0  0  0  0  0  0  0
   20.0591   17.8473   21.0057 H   0  0  0  0  0  0  0  0  0  0  0  0
   19.1694   19.0233   21.5376 H   0  0  0  0  0  0  0  0  0  0  0  0
   20.4557   19.3320   20.6963 H   0  0  0  0  0  0  0  0  0  0  0  0
   15.4324   22.4382   21.2879 C   0  0  0  0  0  0  0  0  0  0  0  0
   15.5282   21.5594   21.6866 H   0  0  0  0  0  0  0  0  0  0  0  0
   16.3141   22.7001   20.9765 H   0  0  0  0  0  0  0  0  0  0  0  0
   15.1327   24.8416   21.8715 C   0  0  0  0  0  0  0  0  0  0  0  0
   14.6993   25.3897   22.5283 H   0  0  0  0  0  0  0  0  0  0  0  0
   14.6815   24.9350   21.0281 H   0  0  0  0  0  0  0  0  0  0  0  0
   16.0473   25.1163   21.7761 H   0  0  0  0  0  0  0  0  0  0  0  0
   15.0820   23.3293   22.3287 C   0  0  0  0  0  0  0  0  0  0  0  0
   14.1602   23.1286   22.5948 H   0  0  0  0  0  0  0  0  0  0  0  0
   15.9364   23.3845   23.6090 C   0  0  0  0  0  0  0  0  0  0  0  0
   16.4526   22.5784   23.6841 H   0  0  0  0  0  0  0  0  0  0  0  0
   15.3630   23.4701   24.3734 H   0  0  0  0  0  0  0  0  0  0  0  0
   16.5280   24.1398   23.5659 H   0  0  0  0  0  0  0  0  0  0  0  0
   13.2608   15.1552   20.9571 C   0  0  2  0  0  0  0  0  0  0  0  0
   12.9310   14.2437   20.8109 H   0  0  0  0  0  0  0  0  0  0  0  0
  1  2  1  0  0  0  0
  3 39  2  0  0  0  0
  4  5  1  0  0  0  0
  8  7  1  0  0  0  0
 11 10  1  0  0  0  0
 13 20  1  0  0  0  0
 13 14  1  0  0  0  0
 15  7  1  0  0  0  0
 15 13  1  0  0  0  0
 16 17  1  0  0  0  0
 16 15  2  0  0  0  0
 17 19  2  0  0  0  0
 18 17  1  0  0  0  0
 19 49  1  0  0  0  0
 19 20  1  0  0  0  0
 20  9  2  0  0  0  0
 21 22  1  0  0  0  0
 23 12  2  0  0  0  0
 23 21  1  0  0  0  0
 24 23  1  0  0  0  0
 25 24  2  0  0  0  0
 25 27  1  0  0  0  0
 26 25  1  0  0  0  0
 27 28  2  0  0  0  0
 28 21  1  0  0  0  0
 28 10  1  0  0  0  0
 29 31  2  0  0  0  0
 30 29  1  0  0  0  0
 31 90  1  0  0  0  0
 31 32  1  0  0  0  0
 32  6  2  0  0  0  0
 33 32  1  0  0  0  0
 33 34  1  0  0  0  0
 35  4  1  0  0  0  0
 35 33  1  0  0  0  0
 36 29  1  0  0  0  0
 36 35  2  0  0  0  0
 37 38  1  6  0  0  0
 37 36  1  0  0  0  0
 37 46  1  0  0  0  0
 39 40  1  0  0  0  0
 40 42  1  0  0  0  0
 40 41  1  0  0  0  0
 42  1  1  0  0  0  0
 43 47  1  0  0  0  0
 43 42  2  0  0  0  0
 44 43  1  0  0  0  0
 45 44  1  0  0  0  0
 46 44  1  1  0  0  0
 46 39  1  0  0  0  0
 47 48  1  1  0  0  0
 47 24  1  0  0  0  0
 49 27  1  0  0  0  0
 49 50  1  1  0  0  0
 51 90  1  0  0  0  0
 52 51  1  0  0  0  0
 53 51  1  0  0  0  0
 54 51  1  0  0  0  0
 54 56  1  0  0  0  0
 54 55  1  0  0  0  0
 56 57  1  0  0  0  0
 58 56  1  0  0  0  0
 59 56  1  0  0  0  0
 60 63  1  0  0  0  0
 60 54  1  0  0  0  0
 61 60  1  0  0  0  0
 62 60  1  0  0  0  0
 64 67  1  0  0  0  0
 64 49  1  0  0  0  0
 65 64  1  0  0  0  0
 66 64  1  0  0  0  0
 67 68  1  0  0  0  0
 67 69  1  0  0  0  0
 69 72  1  0  0  0  0
 69 71  1  0  0  0  0
 70 69  1  0  0  0  0
 73 76  1  0  0  0  0
 73 67  1  0  0  0  0
 74 73  1  0  0  0  0
 75 73  1  0  0  0  0
 77 79  1  0  0  0  0
 77 47  1  0  0  0  0
 78 77  1  0  0  0  0
 80 83  1  0  0  0  0
 80 82  1  0  0  0  0
 81 80  1  0  0  0  0
 84 80  1  0  0  0  0
 84 77  1  0  0  0  0
 85 84  1  0  0  0  0
 86 89  1  0  0  0  0
 86 84  1  0  0  0  0
 87 86  1  0  0  0  0
 88 86  1  0  0  0  0
 90 91  1  1  0  0  0
 90 16  1  0  0  0  0
 94 93  1  0  0  0  0
 97 96  1  0  0  0  0
 99100  1  0  0  0  0
101130  2  0  0  0  0
102111  1  0  0  0  0
102103  1  0  0  0  0
104106  1  0  0  0  0
105104  1  0  0  0  0
106107  1  0  0  0  0
106 92  2  0  0  0  0
107142  1  0  0  0  0
108109  1  0  0  0  0
108107  2  0  0  0  0
110140  1  0  0  0  0
110108  1  0  0  0  0
111104  1  0  0  0  0
111110  2  0  0  0  0
112113  1  0  0  0  0
112114  1  0  0  0  0
114 95  2  0  0  0  0
115116  1  6  0  0  0
115114  1  0  0  0  0
115136  1  0  0  0  0
117116  1  0  0  0  0
118119  1  0  0  0  0
118116  2  0  0  0  0
119 93  1  1  0  0  0
119112  1  0  0  0  0
120121  1  0  0  0  0
122 98  2  0  0  0  0
122120  1  0  0  0  0
123122  1  0  0  0  0
124123  2  0  0  0  0
124126  1  0  0  0  0
125124  1  0  0  0  0
126127  2  0  0  0  0
127120  1  0  0  0  0
127 96  1  0  0  0  0
128129  1  0  0  0  0
128135  1  0  0  0  0
130128  1  0  0  0  0
131130  1  0  0  0  0
131132  2  0  0  0  0
132134  1  0  0  0  0
133132  1  0  0  0  0
134135  2  0  0  0  0
134138  1  0  0  0  0
135 99  1  0  0  0  0
136126  1  0  0  0  0
136137  1  1  0  0  0
138139  1  1  0  0  0
138123  1  0  0  0  0
140141  1  6  0  0  0
140131  1  0  0  0  0
142143  1  6  0  0  0
142118  1  0  0  0  0
144147  1  0  0  0  0
144145  1  0  0  0  0
144142  1  0  0  0  0
146144  1  0  0  0  0
147148  1  0  0  0  0
149152  1  0  0  0  0
149147  1  0  0  0  0
150149  1  0  0  0  0
151149  1  0  0  0  0
153147  1  0  0  0  0
153156  1  0  0  0  0
154153  1  0  0  0  0
155153  1  0  0  0  0
157136  1  0  0  0  0
157160  1  0  0  0  0
158157  1  0  0  0  0
159157  1  0  0  0  0
160161  1  0  0  0  0
160162  1  0  0  0  0
162165  1  0  0  0  0
162164  1  0  0  0  0
162163  1  0  0  0  0
166160  1  0  0  0  0
166169  1  0  0  0  0
167166  1  0  0  0  0
168166  1  0  0  0  0
170138  1  0  0  0  0
170172  1  0  0  0  0
171170  1  0  0  0  0
173175  1  0  0  0  0
173170  1  0  0  0  0
174173  1  0  0  0  0
175177  1  0  0  0  0
175178  1  0  0  0  0
176175  1  0  0  0  0
179173  1  0  0  0  0
179182  1  0  0  0  0
180179  1  0  0  0  0
181179  1  0  0  0  0
183184  1  0  0  0  0
183140  1  0  0  0  0
185183  1  0  0  0  0
186187  1  0  0  0  0
186183  1  0  0  0  0
188190  1  0  0  0  0
188186  1  0  0  0  0
189188  1  0  0  0  0
191188  1  0  0  0  0
192186  1  0  0  0  0
192194  1  0  0  0  0
193192  1  0  0  0  0
195192  1  0  0  0  0
197231  1  0  0  0  0
198197  1  0  0  0  0
200201  1  0  0  0  0
202239  2  0  0  0  0
203204  1  0  0  0  0
205210  2  0  0  0  0
206218  1  0  0  0  0
207206  1  0  0  0  0
208215  1  0  0  0  0
209208  1  0  0  0  0
210211  1  0  0  0  0
210208  1  0  0  0  0
211212  2  0  0  0  0
212213  1  0  0  0  0
212214  1  0  0  0  0
214240  1  0  0  0  0
215214  2  0  0  0  0
215203  1  0  0  0  0
216217  1  0  0  0  0
216223  1  0  0  0  0
218216  1  0  0  0  0
219218  2  0  0  0  0
219220  1  0  0  0  0
220222  2  0  0  0  0
221220  1  0  0  0  0
222223  1  0  0  0  0
222242  1  0  0  0  0
223196  2  0  0  0  0
224226  1  0  0  0  0
224225  1  0  0  0  0
226199  2  0  0  0  0
227272  1  0  0  0  0
227226  1  0  0  0  0
228227  2  0  0  0  0
229228  1  0  0  0  0
230228  1  0  0  0  0
230231  2  0  0  0  0
231224  1  0  0  0  0
232234  1  0  0  0  0
232233  1  0  0  0  0
234200  1  0  0  0  0
235272  1  0  0  0  0
235234  2  0  0  0  0
236235  1  0  0  0  0
237236  1  0  0  0  0
238236  2  0  0  0  0
238239  1  0  0  0  0
239232  1  0  0  0  0
240241  1  1  0  0  0
240238  1  0  0  0  0
242243  1  1  0  0  0
242230  1  0  0  0  0
244245  1  6  0  0  0
244211  1  0  0  0  0
244219  1  0  0  0  0
246247  1  0  0  0  0
246244  1  0  0  0  0
248246  1  0  0  0  0
249250  1  0  0  0  0
249246  1  0  0  0  0
251253  1  0  0  0  0
251249  1  0  0  0  0
252251  1  0  0  0  0
254251  1  0  0  0  0
255257  1  0  0  0  0
255249  1  0  0  0  0
256255  1  0  0  0  0
258255  1  0  0  0  0
259242  1  0  0  0  0
259262  1  0  0  0  0
260259  1  0  0  0  0
261259  1  0  0  0  0
262263  1  0  0  0  0
262264  1  0  0  0  0
264266  1  0  0  0  0
264265  1  0  0  0  0
267264  1  0  0  0  0
268271  1  0  0  0  0
268262  1  0  0  0  0
269268  1  0  0  0  0
270268  1  0  0  0  0
272273  1  1  0  0  0
274277  1  0  0  0  0
274276  1  0  0  0  0
274272  1  0  0  0  0
275274  1  0  0  0  0
277279  1  0  0  0  0
278277  1  0  0  0  0
279281  1  0  0  0  0
279280  1  0  0  0  0
282279  1  0  0  0  0
283284  1  0  0  0  0
283277  1  0  0  0  0
285283  1  0  0  0  0
286283  1  0  0  0  0
287289  1  0  0  0  0
287240  1  0  0  0  0
288287  1  0  0  0  0
290292  1  0  0  0  0
290287  1  0  0  0  0
291290  1  0  0  0  0
292293  1  0  0  0  0
292295  1  0  0  0  0
294292  1  0  0  0  0
296290  1  0  0  0  0
296297  1  0  0  0  0
298296  1  0  0  0  0
299296  1  0  0  0  0
300301  1  0  0  0  0
300 37  1  0  0  0  0
302300  1  0  0  0  0
303307  1  0  0  0  0
303305  1  0  0  0  0
304303  1  0  0  0  0
306303  1  0  0  0  0
307308  1  0  0  0  0
307300  1  0  0  0  0
309310  1  0  0  0  0
309307  1  0  0  0  0
311309  1  0  0  0  0
312309  1  0  0  0  0
313327  2  0  0  0  0
314315  1  0  0  0  0
316335  2  0  0  0  0
317318  1  0  0  0  0
317348  1  0  0  0  0
319343  2  0  0  0  0
320356  1  0  0  0  0
321320  1  0  0  0  0
324323  1  0  0  0  0
325326  1  0  0  0  0
325332  1  0  0  0  0
327325  1  0  0  0  0
328329  2  0  0  0  0
328327  1  0  0  0  0
329331  1  0  0  0  0
330329  1  0  0  0  0
331332  2  0  0  0  0
332323  1  0  0  0  0
333340  1  0  0  0  0
334333  1  0  0  0  0
335336  1  0  0  0  0
335333  1  0  0  0  0
336337  2  0  0  0  0
337338  1  0  0  0  0
337339  1  0  0  0  0
339363  1  0  0  0  0
340314  1  0  0  0  0
340339  2  0  0  0  0
341348  1  0  0  0  0
341343  1  0  0  0  0
342341  1  0  0  0  0
343344  1  0  0  0  0
344345  2  0  0  0  0
344359  1  0  0  0  0
345346  1  0  0  0  0
347357  1  0  0  0  0
347345  1  0  0  0  0
348347  2  0  0  0  0
349351  1  0  0  0  0
350349  1  0  0  0  0
351352  1  0  0  0  0
351322  2  0  0  0  0
352361  1  0  0  0  0
353354  1  0  0  0  0
353352  2  0  0  0  0
355353  1  0  0  0  0
356355  2  0  0  0  0
356349  1  0  0  0  0
357358  1  6  0  0  0
357378  1  0  0  0  0
357336  1  0  0  0  0
359360  1  6  0  0  0
359391  1  0  0  0  0
359355  1  0  0  0  0
361331  1  0  0  0  0
361362  1  1  0  0  0
361404  1  0  0  0  0
363364  1  1  0  0  0
363328  1  0  0  0  0
363365  1  0  0  0  0
365367  1  0  0  0  0
366365  1  0  0  0  0
368365  1  0  0  0  0
368374  1  0  0  0  0
368370  1  0  0  0  0
369368  1  0  0  0  0
370371  1  0  0  0  0
370372  1  0  0  0  0
373370  1  0  0  0  0
374375  1  0  0  0  0
374376  1  0  0  0  0
377374  1  0  0  0  0
378380  1  0  0  0  0
378379  1  0  0  0  0
381387  1  0  0  0  0
381378  1  0  0  0  0
382381  1  0  0  0  0
383381  1  0  0  0  0
384383  1  0  0  0  0
385383  1  0  0  0  0
386383  1  0  0  0  0
387388  1  0  0  0  0
387389  1  0  0  0  0
390387  1  0  0  0  0
391392  1  0  0  0  0
391394  1  0  0  0  0
393391  1  0  0  0  0
394400  1  0  0  0  0
394395  1  0  0  0  0
396394  1  0  0  0  0
396397  1  0  0  0  0
398396  1  0  0  0  0
399396  1  0  0  0  0
400401  1  0  0  0  0
400402  1  0  0  0  0
403400  1  0  0  0  0
404406  1  0  0  0  0
404407  1  0  0  0  0
405404  1  0  0  0  0
407413  1  0  0  0  0
407409  1  0  0  0  0
408407  1  0  0  0  0
409412  1  0  0  0  0
409410  1  0  0  0  0
411409  1  0  0  0  0
413414  1  0  0  0  0
413416  1  0  0  0  0
415413  1  0  0  0  0
417444  2  0  0  0  0
418419  1  0  0  0  0
420447  2  0  0  0  0
421455  1  0  0  0  0
422421  1  0  0  0  0
424436  1  0  0  0  0
425424  1  0  0  0  0
427428  1  0  0  0  0
429430  1  0  0  0  0
429431  1  0  0  0  0
431426  2  0  0  0  0
432431  1  0  0  0  0
432465  1  0  0  0  0
433432  2  0  0  0  0
434433  1  0  0  0  0
435436  2  0  0  0  0
435433  1  0  0  0  0
436429  1  0  0  0  0
437439  1  0  0  0  0
438437  1  0  0  0  0
439440  2  0  0  0  0
439427  1  0  0  0  0
440465  1  0  0  0  0
441442  1  0  0  0  0
441440  1  0  0  0  0
443441  2  0  0  0  0
444443  1  0  0  0  0
444437  1  0  0  0  0
445452  1  0  0  0  0
446445  1  0  0  0  0
447445  1  0  0  0  0
448447  1  1  0  0  0
448449  1  0  0  0  0
449451  2  0  0  0  0
449450  1  0  0  0  0
451463  1  0  0  0  0
452418  1  1  0  0  0
452451  1  0  0  0  0
453460  1  0  0  0  0
454453  1  0  0  0  0
455453  1  0  0  0  0
455456  2  0  0  0  0
456457  1  0  0  0  0
457459  2  0  0  0  0
457458  1  0  0  0  0
459461  1  0  0  0  0
460423  2  0  0  0  0
460459  1  0  0  0  0
461462  1  6  0  0  0
461508  1  0  0  0  0
461435  1  0  0  0  0
463464  1  6  0  0  0
463480  1  0  0  0  0
463443  1  0  0  0  0
465466  1  1  0  0  0
465467  1  0  0  0  0
467469  1  0  0  0  0
467470  1  0  0  0  0
468467  1  0  0  0  0
470476  1  0  0  0  0
470472  1  0  0  0  0
471470  1  0  0  0  0
472475  1  0  0  0  0
472473  1  0  0  0  0
474472  1  0  0  0  0
476479  1  0  0  0  0
476477  1  0  0  0  0
478476  1  0  0  0  0
480481  1  0  0  0  0
480482  1  0  0  0  0
483489  1  0  0  0  0
483480  1  0  0  0  0
484483  1  0  0  0  0
485488  1  0  0  0  0
485483  1  0  0  0  0
486485  1  0  0  0  0
487485  1  0  0  0  0
489490  1  0  0  0  0
489491  1  0  0  0  0
492489  1  0  0  0  0
493494  1  6  0  0  0
493448  1  0  0  0  0
493456  1  0  0  0  0
493495  1  0  0  0  0
495496  1  0  0  0  0
497495  1  0  0  0  0
498495  1  0  0  0  0
498499  1  0  0  0  0
498504  1  0  0  0  0
500503  1  0  0  0  0
500498  1  0  0  0  0
501500  1  0  0  0  0
502500  1  0  0  0  0
504507  1  0  0  0  0
504506  1  0  0  0  0
505504  1  0  0  0  0
508509  1  0  0  0  0
508511  1  0  0  0  0
510508  1  0  0  0  0
511517  1  0  0  0  0
511512  1  0  0  0  0
513511  1  0  0  0  0
513515  1  0  0  0  0
514513  1  0  0  0  0
516513  1  0  0  0  0
517519  1  0  0  0  0
517520  1  0  0  0  0
518517  1  0  0  0  0
521562  1  0  0  0  0
522521  1  0  0  0  0
524555  1  0  0  0  0
525524  1  0  0  0  0
526552  2  0  0  0  0
527528  1  0  0  0  0
529540  2  0  0  0  0
530531  1  0  0  0  0
530548  1  0  0  0  0
532543  2  0  0  0  0
533535  1  0  0  0  0
534533  1  0  0  0  0
535527  1  6  0  0  0
535536  1  0  0  0  0
536610  1  0  0  0  0
537536  2  0  0  0  0
537538  1  0  0  0  0
539540  1  6  0  0  0
539537  1  0  0  0  0
540533  1  0  0  0  0
541548  1  0  0  0  0
541543  1  0  0  0  0
542541  1  0  0  0  0
543544  1  0  0  0  0
544545  2  0  0  0  0
544567  1  0  0  0  0
545546  1  0  0  0  0
547569  1  0  0  0  0
547545  1  0  0  0  0
548547  2  0  0  0  0
549556  1  0  0  0  0
549550  1  0  0  0  0
551549  2  0  0  0  0
552553  1  0  0  0  0
552551  1  0  0  0  0
553555  1  0  0  0  0
554553  1  0  0  0  0
555556  2  0  0  0  0
556557  1  0  0  0  0
557558  1  0  0  0  0
559523  2  0  0  0  0
560559  1  0  0  0  0
561560  1  0  0  0  0
562560  1  0  0  0  0
562563  2  0  0  0  0
563564  1  0  0  0  0
564566  1  0  0  0  0
564565  1  0  0  0  0
566559  1  6  0  0  0
566557  1  0  0  0  0
567568  1  6  0  0  0
567563  1  0  0  0  0
567597  1  0  0  0  0
569570  1  6  0  0  0
569539  1  0  0  0  0
569584  1  0  0  0  0
571574  1  0  0  0  0
571573  1  0  0  0  0
571572  1  0  0  0  0
574580  1  0  0  0  0
575574  1  0  0  0  0
576578  1  0  0  0  0
576574  1  0  0  0  0
576579  1  0  0  0  0
577576  1  0  0  0  0
580582  1  0  0  0  0
580581  1  0  0  0  0
583580  1  0  0  0  0
584585  1  0  0  0  0
584586  1  0  0  0  0
587584  1  0  0  0  0
587593  1  0  0  0  0
588587  1  0  0  0  0
589590  1  0  0  0  0
589587  1  0  0  0  0
591589  1  0  0  0  0
592589  1  0  0  0  0
593594  1  0  0  0  0
593595  1  0  0  0  0
596593  1  0  0  0  0
597598  1  0  0  0  0
597604  1  0  0  0  0
599597  1  0  0  0  0
600604  1  0  0  0  0
600601  1  0  0  0  0
602600  1  0  0  0  0
603600  1  0  0  0  0
604605  1  0  0  0  0
604606  1  0  0  0  0
606607  1  0  0  0  0
606608  1  0  0  0  0
609606  1  0  0  0  0
610611  1  6  0  0  0
610551  1  0  0  0  0
610571  1  0  0  0  0
M  END
$$$$
