00000001
 OpenBabel09272221053D

600624  0  0  1  0  0  0  0  0999 V2000
   -3.6338    7.1508    8.1808 C   0  0  0  0  0  0  0  0  0  0  0  0
   -7.4401    3.4366   11.7075 O   0  0  0  0  0  1  0  0  0  0  0  0
   -7.8669    1.2612   10.1930 O   0  0  0  0  0  1  0  0  0  0  0  0
   -1.2386    6.7495    8.1904 C   0  0  0  0  0  0  0  0  0  0  0  0
   -2.2050    7.6632   10.1737 O   0  0  0  0  0  1  0  0  0  0  0  0
   -0.1446    5.8323    6.3345 O   0  0  0  0  0  1  0  0  0  0  0  0
   -5.8462   -0.5914    6.2865 O   0  0  0  0  0  1  0  0  0  0  0  0
   -2.6565    5.7478    4.8248 C   0  0  1  0  0  0  0  0  0  0  0  0
   -1.7542    5.8625    4.4137 H   0  0  0  0  0  0  0  0  0  0  0  0
   -4.3254    6.9728   11.7219 O   0  0  0  0  0  1  0  0  0  0  0  0
   -4.8340    7.6728    8.9621 C   0  0  2  0  0  0  0  0  0  0  0  0
   -4.4613    8.2883    9.6569 H   0  0  0  0  0  0  0  0  0  0  0  0
   -6.7537   -0.8358    8.8515 O   0  0  0  0  0  1  0  0  0  0  0  0
   -5.5605    6.5896    9.7218 C   0  0  0  0  0  0  0  0  0  0  0  0
   -0.0418    6.7284    8.8780 O   0  0  0  0  0  1  0  0  0  0  0  0
   -2.5485    6.2789    6.2456 C   0  0  0  0  0  0  0  0  0  0  0  0
   -6.1196    1.9401    4.8609 C   0  0  2  0  0  0  0  0  0  0  0  0
   -6.1388    1.0138    4.4859 H   0  0  0  0  0  0  0  0  0  0  0  0
   -3.8219    0.1267    4.7671 O   0  0  0  0  0  1  0  0  0  0  0  0
   -0.6376    3.6750    4.7743 O   0  0  0  0  0  1  0  0  0  0  0  0
   -1.2316    0.9927    4.6854 O   0  0  0  0  0  1  0  0  0  0  0  0
   -5.5779    4.9302   12.9624 O   0  0  0  0  0  1  0  0  0  0  0  0
   -1.3518    6.2517    6.9187 C   0  0  0  0  0  0  0  0  0  0  0  0
   -8.2309    3.9254    8.9717 C   0  0  1  0  0  0  0  0  0  0  0  0
   -8.7745    3.5211    9.7049 H   0  0  0  0  0  0  0  0  0  0  0  0
   -2.3482    7.1689    8.8395 C   0  0  0  0  0  0  0  0  0  0  0  0
   -6.5691    1.7892    6.2384 C   0  0  0  0  0  0  0  0  0  0  0  0
   -6.9471    0.4526    8.2505 C   0  0  0  0  0  0  0  0  0  0  0  0
   -7.5969    2.7246    8.2217 C   0  0  0  0  0  0  0  0  0  0  0  0
   -6.3897    0.6034    6.8706 C   0  0  0  0  0  0  0  0  0  0  0  0
   -4.2818    3.7474    4.7840 C   0  0  0  0  0  0  0  0  0  0  0  0
   -4.9926    4.3750    4.8344 H   0  0  0  0  0  0  0  0  0  0  0  0
   -5.9698    5.1565   11.6354 C   0  0  0  0  0  0  0  0  0  0  0  0
   -7.0777    2.8151    6.9572 C   0  0  0  0  0  0  0  0  0  0  0  0
   -7.0725    3.6750    6.5509 H   0  0  0  0  0  0  0  0  0  0  0  0
   -7.1927    4.7521    9.6569 C   0  0  0  0  0  0  0  0  0  0  0  0
   -6.5151    5.8233    9.0751 C   0  0  0  0  0  0  0  0  0  0  0  0
   -6.7224    6.0435    8.1736 H   0  0  0  0  0  0  0  0  0  0  0  0
   -5.2539    6.2638   11.0416 C   0  0  0  0  0  0  0  0  0  0  0  0
   -3.6565    6.6952    6.9452 C   0  0  0  0  0  0  0  0  0  0  0  0
   -4.4996    6.6530    6.5076 H   0  0  0  0  0  0  0  0  0  0  0  0
   -4.5849    2.4017    4.7311 C   0  0  0  0  0  0  0  0  0  0  0  0
   -6.8861    4.4383   10.9526 C   0  0  0  0  0  0  0  0  0  0  0  0
   -7.4575    1.4634    8.9164 C   0  0  0  0  0  0  0  0  0  0  0  0
   -2.9753    4.2181    4.7671 C   0  0  0  0  0  0  0  0  0  0  0  0
   -3.5572    1.5026    4.7407 C   0  0  0  0  0  0  0  0  0  0  0  0
   -2.2176    1.8978    4.7503 C   0  0  0  0  0  0  0  0  0  0  0  0
   -1.9667    3.2797    4.8032 C   0  0  0  0  0  0  0  0  0  0  0  0
   -3.6565    6.5806    3.9378 C   0  0  0  0  0  0  0  0  0  0  0  0
   -4.5571    6.5655    4.3416 H   0  0  0  0  0  0  0  0  0  0  0  0
   -3.7139    6.1793    3.0338 H   0  0  0  0  0  0  0  0  0  0  0  0
   -9.1856    4.7039    8.1592 C   0  0  0  0  0  0  0  0  0  0  0  0
   -9.4347    5.5155    8.6664 H   0  0  0  0  0  0  0  0  0  0  0  0
   -8.7274    4.9965    7.3322 H   0  0  0  0  0  0  0  0  0  0  0  0
   -8.4330    2.1573    3.7983 C   0  0  0  0  0  0  0  0  0  0  0  0
   -8.7710    2.2659    4.7335 H   0  0  0  0  0  0  0  0  0  0  0  0
   -6.9819    2.7396    3.9378 C   0  0  0  0  0  0  0  0  0  0  0  0
   -6.5586    2.7668    3.0435 H   0  0  0  0  0  0  0  0  0  0  0  0
   -7.0394    3.6720    4.2719 H   0  0  0  0  0  0  0  0  0  0  0  0
   -5.7486    8.5508    8.0678 C   0  0  0  0  0  0  0  0  0  0  0  0
   -6.5569    8.8043    8.5823 H   0  0  0  0  0  0  0  0  0  0  0  0
   -6.0465    8.0168    7.2889 H   0  0  0  0  0  0  0  0  0  0  0  0
   -9.3598    3.0444    3.0603 C   0  0  0  0  0  0  0  0  0  0  0  0
   -9.1786    3.9797    3.2959 H   0  0  0  0  0  0  0  0  0  0  0  0
  -10.2883    2.8241    3.2983 H   0  0  0  0  0  0  0  0  0  0  0  0
   -9.2361    2.9207    2.0963 H   0  0  0  0  0  0  0  0  0  0  0  0
   -8.4783    0.7272    3.6613 C   0  0  0  0  0  0  0  0  0  0  0  0
   -7.8547    0.3168    4.2959 H   0  0  0  0  0  0  0  0  0  0  0  0
   -8.2240    0.4797    2.7478 H   0  0  0  0  0  0  0  0  0  0  0  0
   -9.3894    0.4103    3.8440 H   0  0  0  0  0  0  0  0  0  0  0  0
  -10.4015    3.9978    7.7890 C   0  0  0  0  0  0  0  0  0  0  0  0
  -10.2395    3.0293    7.6063 H   0  0  0  0  0  0  0  0  0  0  0  0
   -5.0222    9.8935    7.5365 C   0  0  0  0  0  0  0  0  0  0  0  0
   -4.0850    9.6521    7.2769 H   0  0  0  0  0  0  0  0  0  0  0  0
  -11.2795    4.2271    9.0799 C   0  0  0  0  0  0  0  0  0  0  0  0
  -12.1470    3.7806    8.9693 H   0  0  0  0  0  0  0  0  0  0  0  0
  -11.4240    5.1896    9.2097 H   0  0  0  0  0  0  0  0  0  0  0  0
  -10.8196    3.8590    9.8612 H   0  0  0  0  0  0  0  0  0  0  0  0
   -4.9542   10.7474    8.7361 C   0  0  0  0  0  0  0  0  0  0  0  0
   -4.4630   10.2767    9.4429 H   0  0  0  0  0  0  0  0  0  0  0  0
   -5.8618   10.9495    9.0438 H   0  0  0  0  0  0  0  0  0  0  0  0
   -4.4874   11.5801    8.5150 H   0  0  0  0  0  0  0  0  0  0  0  0
  -10.9502    4.7190    6.5990 C   0  0  0  0  0  0  0  0  0  0  0  0
  -11.7655    4.2664    6.2913 H   0  0  0  0  0  0  0  0  0  0  0  0
  -10.2865    4.7220    5.8802 H   0  0  0  0  0  0  0  0  0  0  0  0
  -11.1662    5.6422    6.8466 H   0  0  0  0  0  0  0  0  0  0  0  0
   -5.6545   10.4095    6.4163 C   0  0  0  0  0  0  0  0  0  0  0  0
   -5.5849    9.7698    5.6782 H   0  0  0  0  0  0  0  0  0  0  0  0
   -5.2295   11.2543    6.1615 H   0  0  0  0  0  0  0  0  0  0  0  0
   -6.6004   10.5694    6.6206 H   0  0  0  0  0  0  0  0  0  0  0  0
   -3.1304    8.0832    3.8296 C   0  0  0  0  0  0  0  0  0  0  0  0
   -2.9335    8.4664    4.7311 H   0  0  0  0  0  0  0  0  0  0  0  0
   -2.0085    7.9564    3.0915 C   0  0  0  0  0  0  0  0  0  0  0  0
   -1.3413    7.4465    3.5964 H   0  0  0  0  0  0  0  0  0  0  0  0
   -1.6549    8.8465    2.8848 H   0  0  0  0  0  0  0  0  0  0  0  0
   -2.2210    7.4858    2.2574 H   0  0  0  0  0  0  0  0  0  0  0  0
   -4.4944    8.6836    3.2117 C   0  0  0  0  0  0  0  0  0  0  0  0
   -5.1842    8.7077    3.9065 H   0  0  0  0  0  0  0  0  0  0  0  0
   -4.7957    8.1194    2.4713 H   0  0  0  0  0  0  0  0  0  0  0  0
   -4.3289    9.5918    2.8824 H   0  0  0  0  0  0  0  0  0  0  0  0
   -4.3759   -6.7224    8.1808 C   0  0  0  0  0  0  0  0  0  0  0  0
    0.7439   -8.1616   11.7075 O   0  0  0  0  0  1  0  0  0  0  0  0
    2.8412   -7.4435   10.1930 O   0  0  0  0  0  1  0  0  0  0  0  0
   -5.2259   -4.4474    8.1904 C   0  0  0  0  0  0  0  0  0  0  0  0
   -5.5340   -5.7412   10.1737 O   0  0  0  0  0  1  0  0  0  0  0  0
   -4.9786   -3.0414    6.3345 O   0  0  0  0  0  1  0  0  0  0  0  0
    3.4353   -4.7673    6.2865 O   0  0  0  0  0  1  0  0  0  0  0  0
   -3.6495   -5.1745    4.8248 C   0  0  1  0  0  0  0  0  0  0  0  0
   -4.2000   -4.4504    4.4137 H   0  0  0  0  0  0  0  0  0  0  0  0
   -3.8759   -7.2323   11.7219 O   0  0  0  0  0  1  0  0  0  0  0  0
   -4.2278   -8.0228    8.9621 C   0  0  2  0  0  0  0  0  0  0  0  0
   -4.9472   -8.0077    9.6569 H   0  0  0  0  0  0  0  0  0  0  0  0
    4.1007   -5.4310    8.8515 O   0  0  0  0  0  1  0  0  0  0  0  0
   -2.9265   -8.1103    9.7218 C   0  0  0  0  0  0  0  0  0  0  0  0
   -5.8061   -3.4004    8.8780 O   0  0  0  0  0  1  0  0  0  0  0  0
   -4.1634   -5.3465    6.2456 C   0  0  0  0  0  0  0  0  0  0  0  0
    1.3796   -6.2698    4.8609 C   0  0  2  0  0  0  0  0  0  0  0  0
    2.1914   -5.8233    4.4859 H   0  0  0  0  0  0  0  0  0  0  0  0
    1.8012   -3.3732    4.7671 O   0  0  0  0  0  1  0  0  0  0  0  0
   -2.8638   -2.3897    4.7743 O   0  0  0  0  0  1  0  0  0  0  0  0
   -0.2439   -1.5629    4.6854 O   0  0  0  0  0  1  0  0  0  0  0  0
   -1.4807   -7.2957   12.9624 O   0  0  0  0  0  1  0  0  0  0  0  0
   -4.7382   -4.2965    6.9187 C   0  0  0  0  0  0  0  0  0  0  0  0
    0.7160   -9.0909    8.9717 C   0  0  1  0  0  0  0  0  0  0  0  0
    1.3379   -9.3595    9.7049 H   0  0  0  0  0  0  0  0  0  0  0  0
   -5.0343   -5.6181    8.8395 C   0  0  0  0  0  0  0  0  0  0  0  0
    1.7351   -6.5836    6.2384 C   0  0  0  0  0  0  0  0  0  0  0  0
    3.0816   -6.2427    8.2505 C   0  0  0  0  0  0  0  0  0  0  0  0
    1.4389   -7.9414    8.2217 C   0  0  0  0  0  0  0  0  0  0  0  0
    2.6723   -5.8353    6.8706 C   0  0  0  0  0  0  0  0  0  0  0  0
   -1.1044   -5.5818    4.7840 C   0  0  0  0  0  0  0  0  0  0  0  0
   -1.2926   -6.5112    4.8344 H   0  0  0  0  0  0  0  0  0  0  0  0
   -1.4808   -7.7482   11.6354 C   0  0  0  0  0  0  0  0  0  0  0  0
    1.1009   -7.5370    6.9572 C   0  0  0  0  0  0  0  0  0  0  0  0
    0.3536   -7.9625    6.5509 H   0  0  0  0  0  0  0  0  0  0  0  0
   -0.5191   -8.6051    9.6569 C   0  0  0  0  0  0  0  0  0  0  0  0
   -1.7856   -8.5539    9.0751 C   0  0  0  0  0  0  0  0  0  0  0  0
   -1.8726   -8.8435    8.1736 H   0  0  0  0  0  0  0  0  0  0  0  0
   -2.7977   -7.6819   11.0416 C   0  0  0  0  0  0  0  0  0  0  0  0
   -3.9700   -6.5142    6.9452 C   0  0  0  0  0  0  0  0  0  0  0  0
   -3.5119   -7.2233    6.5076 H   0  0  0  0  0  0  0  0  0  0  0  0
    0.2125   -5.1715    4.7311 C   0  0  0  0  0  0  0  0  0  0  0  0
   -0.4006   -8.1827   10.9526 C   0  0  0  0  0  0  0  0  0  0  0  0
    2.4614   -7.1901    8.9164 C   0  0  0  0  0  0  0  0  0  0  0  0
   -2.1653   -4.6857    4.7671 C   0  0  0  0  0  0  0  0  0  0  0  0
    0.4773   -3.8319    4.7407 C   0  0  0  0  0  0  0  0  0  0  0  0
   -0.5347   -2.8694    4.7503 C   0  0  0  0  0  0  0  0  0  0  0  0
   -1.8570   -3.3431    4.8032 C   0  0  0  0  0  0  0  0  0  0  0  0
   -3.8707   -6.4569    3.9378 C   0  0  0  0  0  0  0  0  0  0  0  0
   -3.4073   -7.2293    4.3416 H   0  0  0  0  0  0  0  0  0  0  0  0
   -3.4945   -6.3060    3.0338 H   0  0  0  0  0  0  0  0  0  0  0  0
    0.5191  -10.3069    8.1592 C   0  0  0  0  0  0  0  0  0  0  0  0
   -0.0592  -10.9284    8.6664 H   0  0  0  0  0  0  0  0  0  0  0  0
    0.0366  -10.0564    7.3322 H   0  0  0  0  0  0  0  0  0  0  0  0
    2.3482   -8.3818    3.7983 C   0  0  0  0  0  0  0  0  0  0  0  0
    2.4232   -8.7289    4.7335 H   0  0  0  0  0  0  0  0  0  0  0  0
    1.1184   -7.4163    3.9378 C   0  0  0  0  0  0  0  0  0  0  0  0
    0.8832   -7.0633    3.0435 H   0  0  0  0  0  0  0  0  0  0  0  0
    0.3397   -7.9323    4.2719 H   0  0  0  0  0  0  0  0  0  0  0  0
   -4.5309   -9.2538    8.0678 C   0  0  0  0  0  0  0  0  0  0  0  0
   -4.3463  -10.0806    8.5823 H   0  0  0  0  0  0  0  0  0  0  0  0
   -3.9195   -9.2448    7.2889 H   0  0  0  0  0  0  0  0  0  0  0  0
    2.0434   -9.6280    3.0603 C   0  0  0  0  0  0  0  0  0  0  0  0
    1.1428   -9.9388    3.2959 H   0  0  0  0  0  0  0  0  0  0  0  0
    2.6984  -10.3220    3.2983 H   0  0  0  0  0  0  0  0  0  0  0  0
    2.0886   -9.4590    2.0963 H   0  0  0  0  0  0  0  0  0  0  0  0
    3.6094   -7.7060    3.6613 C   0  0  0  0  0  0  0  0  0  0  0  0
    3.6530   -6.9608    4.2959 H   0  0  0  0  0  0  0  0  0  0  0  0
    3.6966   -7.3620    2.7478 H   0  0  0  0  0  0  0  0  0  0  0  0
    4.3394   -8.3366    3.8440 H   0  0  0  0  0  0  0  0  0  0  0  0
    1.7386  -11.0069    7.7890 C   0  0  0  0  0  0  0  0  0  0  0  0
    2.4963  -10.3823    7.6063 H   0  0  0  0  0  0  0  0  0  0  0  0
   -6.0569   -9.2961    7.5365 C   0  0  0  0  0  0  0  0  0  0  0  0
   -6.3165   -8.3638    7.2769 H   0  0  0  0  0  0  0  0  0  0  0  0
    1.9790  -11.8819    9.0799 C   0  0  0  0  0  0  0  0  0  0  0  0
    2.7994  -12.4099    8.9693 H   0  0  0  0  0  0  0  0  0  0  0  0
    1.2177  -12.4883    9.2097 H   0  0  0  0  0  0  0  0  0  0  0  0
    2.0678  -11.2995    9.8612 H   0  0  0  0  0  0  0  0  0  0  0  0
   -6.8304   -9.6642    8.7361 C   0  0  0  0  0  0  0  0  0  0  0  0
   -6.6684   -9.0034    9.4429 H   0  0  0  0  0  0  0  0  0  0  0  0
   -6.5516  -10.5512    9.0438 H   0  0  0  0  0  0  0  0  0  0  0  0
   -7.7850   -9.6763    8.5150 H   0  0  0  0  0  0  0  0  0  0  0  0
    1.3883  -11.8427    6.5990 C   0  0  0  0  0  0  0  0  0  0  0  0
    2.1879  -12.3224    6.2913 H   0  0  0  0  0  0  0  0  0  0  0  0
    1.0539  -11.2694    5.8802 H   0  0  0  0  0  0  0  0  0  0  0  0
    0.6968  -12.4913    6.8466 H   0  0  0  0  0  0  0  0  0  0  0  0
   -6.1876  -10.1017    6.4163 C   0  0  0  0  0  0  0  0  0  0  0  0
   -5.6684   -9.7216    5.6782 H   0  0  0  0  0  0  0  0  0  0  0  0
   -7.1318  -10.1560    6.1615 H   0  0  0  0  0  0  0  0  0  0  0  0
   -5.8532  -11.0008    6.6206 H   0  0  0  0  0  0  0  0  0  0  0  0
   -5.4351   -6.7526    3.8296 C   0  0  0  0  0  0  0  0  0  0  0  0
   -5.8654   -6.7737    4.7311 H   0  0  0  0  0  0  0  0  0  0  0  0
   -5.8862   -5.7176    3.0915 C   0  0  0  0  0  0  0  0  0  0  0  0
   -5.7782   -4.8849    3.5964 H   0  0  0  0  0  0  0  0  0  0  0  0
   -6.8338   -5.8564    2.8848 H   0  0  0  0  0  0  0  0  0  0  0  0
   -5.3724   -5.6663    2.2574 H   0  0  0  0  0  0  0  0  0  0  0  0
   -5.2730   -8.2341    3.2117 C   0  0  0  0  0  0  0  0  0  0  0  0
   -4.9490   -8.8435    3.9065 H   0  0  0  0  0  0  0  0  0  0  0  0
   -4.6338   -8.2129    2.4713 H   0  0  0  0  0  0  0  0  0  0  0  0
   -6.1423   -8.5448    2.8824 H   0  0  0  0  0  0  0  0  0  0  0  0
    3.6338   -7.1508   15.8592 C   0  0  0  0  0  0  0  0  0  0  0  0
    7.4401   -3.4366   12.3325 O   0  0  0  0  0  1  0  0  0  0  0  0
    7.8669   -1.2612   13.8470 O   0  0  0  0  0  1  0  0  0  0  0  0
    1.2386   -6.7495   15.8496 C   0  0  0  0  0  0  0  0  0  0  0  0
    2.2050   -7.6632   13.8663 O   0  0  0  0  0  1  0  0  0  0  0  0
    0.1446   -5.8323   17.7055 O   0  0  0  0  0  1  0  0  0  0  0  0
    5.8462    0.5914   17.7535 O   0  0  0  0  0  1  0  0  0  0  0  0
    2.6565   -5.7478   19.2152 C   0  0  2  0  0  0  0  0  0  0  0  0
    1.7542   -5.8625   19.6263 H   0  0  0  0  0  0  0  0  0  0  0  0
    4.3254   -6.9728   12.3181 O   0  0  0  0  0  1  0  0  0  0  0  0
    4.8340   -7.6728   15.0779 C   0  0  1  0  0  0  0  0  0  0  0  0
    4.4613   -8.2883   14.3831 H   0  0  0  0  0  0  0  0  0  0  0  0
    6.7537    0.8358   15.1885 O   0  0  0  0  0  1  0  0  0  0  0  0
    5.5605   -6.5896   14.3182 C   0  0  0  0  0  0  0  0  0  0  0  0
    0.0418   -6.7284   15.1620 O   0  0  0  0  0  1  0  0  0  0  0  0
    2.5485   -6.2789   17.7944 C   0  0  0  0  0  0  0  0  0  0  0  0
    6.1196   -1.9401   19.1791 C   0  0  1  0  0  0  0  0  0  0  0  0
    6.1388   -1.0138   19.5541 H   0  0  0  0  0  0  0  0  0  0  0  0
    3.8219   -0.1267   19.2729 O   0  0  0  0  0  1  0  0  0  0  0  0
    0.6376   -3.6750   19.2657 O   0  0  0  0  0  1  0  0  0  0  0  0
    1.2316   -0.9927   19.3546 O   0  0  0  0  0  1  0  0  0  0  0  0
    5.5779   -4.9302   11.0776 O   0  0  0  0  0  1  0  0  0  0  0  0
    1.3518   -6.2517   17.1213 C   0  0  0  0  0  0  0  0  0  0  0  0
    8.2309   -3.9254   15.0683 C   0  0  2  0  0  0  0  0  0  0  0  0
    8.7745   -3.5211   14.3351 H   0  0  0  0  0  0  0  0  0  0  0  0
    2.3482   -7.1689   15.2005 C   0  0  0  0  0  0  0  0  0  0  0  0
    6.5691   -1.7892   17.8016 C   0  0  0  0  0  0  0  0  0  0  0  0
    6.9471   -0.4526   15.7895 C   0  0  0  0  0  0  0  0  0  0  0  0
    7.5969   -2.7246   15.8183 C   0  0  0  0  0  0  0  0  0  0  0  0
    6.3897   -0.6034   17.1694 C   0  0  0  0  0  0  0  0  0  0  0  0
    4.2818   -3.7474   19.2560 C   0  0  0  0  0  0  0  0  0  0  0  0
    4.9926   -4.3750   19.2056 H   0  0  0  0  0  0  0  0  0  0  0  0
    5.9698   -5.1565   12.4046 C   0  0  0  0  0  0  0  0  0  0  0  0
    7.0777   -2.8151   17.0828 C   0  0  0  0  0  0  0  0  0  0  0  0
    7.0725   -3.6750   17.4891 H   0  0  0  0  0  0  0  0  0  0  0  0
    7.1927   -4.7521   14.3831 C   0  0  0  0  0  0  0  0  0  0  0  0
    6.5151   -5.8233   14.9649 C   0  0  0  0  0  0  0  0  0  0  0  0
    6.7224   -6.0435   15.8664 H   0  0  0  0  0  0  0  0  0  0  0  0
    5.2539   -6.2638   12.9984 C   0  0  0  0  0  0  0  0  0  0  0  0
    3.6565   -6.6952   17.0948 C   0  0  0  0  0  0  0  0  0  0  0  0
    4.4996   -6.6530   17.5324 H   0  0  0  0  0  0  0  0  0  0  0  0
    4.5849   -2.4017   19.3089 C   0  0  0  0  0  0  0  0  0  0  0  0
    6.8861   -4.4383   13.0874 C   0  0  0  0  0  0  0  0  0  0  0  0
    7.4575   -1.4634   15.1236 C   0  0  0  0  0  0  0  0  0  0  0  0
    2.9753   -4.2181   19.2729 C   0  0  0  0  0  0  0  0  0  0  0  0
    3.5572   -1.5026   19.2993 C   0  0  0  0  0  0  0  0  0  0  0  0
    2.2176   -1.8978   19.2897 C   0  0  0  0  0  0  0  0  0  0  0  0
    1.9667   -3.2797   19.2368 C   0  0  0  0  0  0  0  0  0  0  0  0
    3.6565   -6.5806   20.1022 C   0  0  0  0  0  0  0  0  0  0  0  0
    4.5571   -6.5655   19.6984 H   0  0  0  0  0  0  0  0  0  0  0  0
    3.7139   -6.1793   21.0062 H   0  0  0  0  0  0  0  0  0  0  0  0
    9.1856   -4.7039   15.8808 C   0  0  0  0  0  0  0  0  0  0  0  0
    9.4347   -5.5155   15.3736 H   0  0  0  0  0  0  0  0  0  0  0  0
    8.7274   -4.9965   16.7078 H   0  0  0  0  0  0  0  0  0  0  0  0
    8.4330   -2.1573   20.2417 C   0  0  0  0  0  0  0  0  0  0  0  0
    8.7710   -2.2659   19.3065 H   0  0  0  0  0  0  0  0  0  0  0  0
    6.9819   -2.7396   20.1022 C   0  0  0  0  0  0  0  0  0  0  0  0
    6.5586   -2.7668   20.9965 H   0  0  0  0  0  0  0  0  0  0  0  0
    7.0394   -3.6720   19.7681 H   0  0  0  0  0  0  0  0  0  0  0  0
    5.7486   -8.5508   15.9722 C   0  0  0  0  0  0  0  0  0  0  0  0
    6.5569   -8.8043   15.4577 H   0  0  0  0  0  0  0  0  0  0  0  0
    6.0465   -8.0168   16.7511 H   0  0  0  0  0  0  0  0  0  0  0  0
    9.3598   -3.0444   20.9797 C   0  0  0  0  0  0  0  0  0  0  0  0
    9.1786   -3.9797   20.7441 H   0  0  0  0  0  0  0  0  0  0  0  0
   10.2883   -2.8241   20.7417 H   0  0  0  0  0  0  0  0  0  0  0  0
    9.2361   -2.9207   21.9437 H   0  0  0  0  0  0  0  0  0  0  0  0
    8.4783   -0.7272   20.3787 C   0  0  0  0  0  0  0  0  0  0  0  0
    7.8547   -0.3168   19.7441 H   0  0  0  0  0  0  0  0  0  0  0  0
    8.2240   -0.4797   21.2922 H   0  0  0  0  0  0  0  0  0  0  0  0
    9.3894   -0.4103   20.1960 H   0  0  0  0  0  0  0  0  0  0  0  0
   10.4015   -3.9978   16.2510 C   0  0  0  0  0  0  0  0  0  0  0  0
   10.2395   -3.0293   16.4337 H   0  0  0  0  0  0  0  0  0  0  0  0
    5.0222   -9.8935   16.5035 C   0  0  0  0  0  0  0  0  0  0  0  0
    4.0850   -9.6521   16.7631 H   0  0  0  0  0  0  0  0  0  0  0  0
   11.2795   -4.2271   14.9601 C   0  0  0  0  0  0  0  0  0  0  0  0
   12.1470   -3.7806   15.0707 H   0  0  0  0  0  0  0  0  0  0  0  0
   11.4240   -5.1896   14.8303 H   0  0  0  0  0  0  0  0  0  0  0  0
   10.8196   -3.8590   14.1788 H   0  0  0  0  0  0  0  0  0  0  0  0
    4.9542  -10.7474   15.3039 C   0  0  0  0  0  0  0  0  0  0  0  0
    4.4630  -10.2767   14.5971 H   0  0  0  0  0  0  0  0  0  0  0  0
    5.8618  -10.9495   14.9962 H   0  0  0  0  0  0  0  0  0  0  0  0
    4.4874  -11.5801   15.5250 H   0  0  0  0  0  0  0  0  0  0  0  0
   10.9502   -4.7190   17.4410 C   0  0  0  0  0  0  0  0  0  0  0  0
   11.7655   -4.2664   17.7487 H   0  0  0  0  0  0  0  0  0  0  0  0
   10.2865   -4.7220   18.1598 H   0  0  0  0  0  0  0  0  0  0  0  0
   11.1662   -5.6422   17.1934 H   0  0  0  0  0  0  0  0  0  0  0  0
    5.6545  -10.4095   17.6237 C   0  0  0  0  0  0  0  0  0  0  0  0
    5.5849   -9.7698   18.3618 H   0  0  0  0  0  0  0  0  0  0  0  0
    5.2295  -11.2543   17.8785 H   0  0  0  0  0  0  0  0  0  0  0  0
    6.6004  -10.5694   17.4194 H   0  0  0  0  0  0  0  0  0  0  0  0
    3.1304   -8.0832   20.2104 C   0  0  0  0  0  0  0  0  0  0  0  0
    2.9335   -8.4664   19.3089 H   0  0  0  0  0  0  0  0  0  0  0  0
    2.0085   -7.9564   20.9485 C   0  0  0  0  0  0  0  0  0  0  0  0
    1.3413   -7.4465   20.4436 H   0  0  0  0  0  0  0  0  0  0  0  0
    1.6549   -8.8465   21.1552 H   0  0  0  0  0  0  0  0  0  0  0  0
    2.2210   -7.4858   21.7826 H   0  0  0  0  0  0  0  0  0  0  0  0
    4.4944   -8.6836   20.8283 C   0  0  0  0  0  0  0  0  0  0  0  0
    5.1842   -8.7077   20.1335 H   0  0  0  0  0  0  0  0  0  0  0  0
    4.7957   -8.1194   21.5687 H   0  0  0  0  0  0  0  0  0  0  0  0
    4.3289   -9.5918   21.1576 H   0  0  0  0  0  0  0  0  0  0  0  0
   -8.0097    0.4284   15.8592 C   0  0  0  0  0  0  0  0  0  0  0  0
   -6.6962   -4.7250   12.3325 O   0  0  0  0  0  1  0  0  0  0  0  0
   -5.0257   -6.1823   13.8470 O   0  0  0  0  0  1  0  0  0  0  0  0
   -6.4645    2.3021   15.8496 C   0  0  0  0  0  0  0  0  0  0  0  0
   -7.7390    1.9220   13.8663 O   0  0  0  0  0  1  0  0  0  0  0  0
   -5.1232    2.7909   17.7055 O   0  0  0  0  0  1  0  0  0  0  0  0
   -2.4109   -5.3587   17.7535 O   0  0  0  0  0  1  0  0  0  0  0  0
   -6.3060    0.5733   19.2152 C   0  0  2  0  0  0  0  0  0  0  0  0
   -5.9542    1.4121   19.6263 H   0  0  0  0  0  0  0  0  0  0  0  0
   -8.2013   -0.2595   12.3181 O   0  0  0  0  0  1  0  0  0  0  0  0
   -9.0618   -0.3500   15.0779 C   0  0  1  0  0  0  0  0  0  0  0  0
   -9.4085    0.2806   14.3831 H   0  0  0  0  0  0  0  0  0  0  0  0
   -2.6530   -6.2668   15.1885 O   0  0  0  0  0  1  0  0  0  0  0  0
   -8.4870   -1.5207   14.3182 C   0  0  0  0  0  0  0  0  0  0  0  0
   -5.8479    3.3280   15.1620 O   0  0  0  0  0  1  0  0  0  0  0  0
   -6.7119    0.9324   17.7944 C   0  0  0  0  0  0  0  0  0  0  0  0
   -4.7400   -4.3297   19.1791 C   0  0  1  0  0  0  0  0  0  0  0  0
   -3.9474   -4.8095   19.5541 H   0  0  0  0  0  0  0  0  0  0  0  0
   -2.0207   -3.2465   19.2729 O   0  0  0  0  0  1  0  0  0  0  0  0
   -3.5014    1.2853   19.2657 O   0  0  0  0  0  1  0  0  0  0  0  0
   -1.4755   -0.5702   19.3546 O   0  0  0  0  0  1  0  0  0  0  0  0
   -7.0586   -2.3655   11.0776 O   0  0  0  0  0  1  0  0  0  0  0  0
   -6.0900    1.9552   17.1213 C   0  0  0  0  0  0  0  0  0  0  0  0
   -7.5149   -5.1655   15.0683 C   0  0  2  0  0  0  0  0  0  0  0  0
   -7.4366   -5.8384   14.3351 H   0  0  0  0  0  0  0  0  0  0  0  0
   -7.3826    1.5508   15.2005 C   0  0  0  0  0  0  0  0  0  0  0  0
   -4.8340   -4.7944   17.8016 C   0  0  0  0  0  0  0  0  0  0  0  0
   -3.8655   -5.7901   15.7895 C   0  0  0  0  0  0  0  0  0  0  0  0
   -6.1580   -5.2168   15.8183 C   0  0  0  0  0  0  0  0  0  0  0  0
   -3.7174   -5.2319   17.1694 C   0  0  0  0  0  0  0  0  0  0  0  0
   -5.3862   -1.8344   19.2560 C   0  0  0  0  0  0  0  0  0  0  0  0
   -6.2852   -2.1362   19.2056 H   0  0  0  0  0  0  0  0  0  0  0  0
   -7.4506   -2.5917   12.4046 C   0  0  0  0  0  0  0  0  0  0  0  0
   -5.9768   -4.7219   17.0828 C   0  0  0  0  0  0  0  0  0  0  0  0
   -6.7189   -4.2875   17.4891 H   0  0  0  0  0  0  0  0  0  0  0  0
   -7.7118   -3.8530   14.3831 C   0  0  0  0  0  0  0  0  0  0  0  0
   -8.3007   -2.7306   14.9649 C   0  0  0  0  0  0  0  0  0  0  0  0
   -8.5950   -2.8000   15.8664 H   0  0  0  0  0  0  0  0  0  0  0  0
   -8.0516   -1.4181   12.9984 C   0  0  0  0  0  0  0  0  0  0  0  0
   -7.6265    0.1810   17.0948 C   0  0  0  0  0  0  0  0  0  0  0  0
   -8.0115   -0.5703   17.5324 H   0  0  0  0  0  0  0  0  0  0  0  0
   -4.3724   -2.7698   19.3089 C   0  0  0  0  0  0  0  0  0  0  0  0
   -7.2867   -3.7444   13.0874 C   0  0  0  0  0  0  0  0  0  0  0  0
   -4.9961   -5.7267   15.1236 C   0  0  0  0  0  0  0  0  0  0  0  0
   -5.1406   -0.4676   19.2729 C   0  0  0  0  0  0  0  0  0  0  0  0
   -3.0799   -2.3293   19.2993 C   0  0  0  0  0  0  0  0  0  0  0  0
   -2.7523   -0.9716   19.2897 C   0  0  0  0  0  0  0  0  0  0  0  0
   -3.8237   -0.0634   19.2368 C   0  0  0  0  0  0  0  0  0  0  0  0
   -7.5272    0.1237   20.1022 C   0  0  0  0  0  0  0  0  0  0  0  0
   -7.9644   -0.6638   19.6984 H   0  0  0  0  0  0  0  0  0  0  0  0
   -7.2084   -0.1267   21.0062 H   0  0  0  0  0  0  0  0  0  0  0  0
   -8.6665   -5.6030   15.8808 C   0  0  0  0  0  0  0  0  0  0  0  0
   -9.4939   -5.4129   15.3736 H   0  0  0  0  0  0  0  0  0  0  0  0
   -8.6908   -5.0599   16.7078 H   0  0  0  0  0  0  0  0  0  0  0  0
   -6.0848   -6.2245   20.2417 C   0  0  0  0  0  0  0  0  0  0  0  0
   -6.3478   -6.4630   19.3065 H   0  0  0  0  0  0  0  0  0  0  0  0
   -5.8635   -4.6767   20.1022 C   0  0  0  0  0  0  0  0  0  0  0  0
   -5.6754   -4.2965   20.9965 H   0  0  0  0  0  0  0  0  0  0  0  0
   -6.6997   -4.2603   19.7681 H   0  0  0  0  0  0  0  0  0  0  0  0
  -10.2795   -0.7030   15.9722 C   0  0  0  0  0  0  0  0  0  0  0  0
  -10.9032   -1.2763   15.4577 H   0  0  0  0  0  0  0  0  0  0  0  0
   -9.9660   -1.2280   16.7511 H   0  0  0  0  0  0  0  0  0  0  0  0
   -7.3164   -6.5836   20.9797 C   0  0  0  0  0  0  0  0  0  0  0  0
   -8.0358   -5.9591   20.7441 H   0  0  0  0  0  0  0  0  0  0  0  0
   -7.5899   -7.4979   20.7417 H   0  0  0  0  0  0  0  0  0  0  0  0
   -7.1475   -6.5383   21.9437 H   0  0  0  0  0  0  0  0  0  0  0  0
   -4.8689   -6.9788   20.3787 C   0  0  0  0  0  0  0  0  0  0  0  0
   -4.2017   -6.6440   19.7441 H   0  0  0  0  0  0  0  0  0  0  0  0
   -4.5274   -6.8823   21.2922 H   0  0  0  0  0  0  0  0  0  0  0  0
   -5.0500   -7.9263   20.1960 H   0  0  0  0  0  0  0  0  0  0  0  0
   -8.6629   -7.0091   16.2510 C   0  0  0  0  0  0  0  0  0  0  0  0
   -7.7432   -7.3530   16.4337 H   0  0  0  0  0  0  0  0  0  0  0  0
  -11.0791    0.5974   16.5035 C   0  0  0  0  0  0  0  0  0  0  0  0
  -10.4015    1.2883   16.7631 H   0  0  0  0  0  0  0  0  0  0  0  0
   -9.3005   -7.6548   14.9601 C   0  0  0  0  0  0  0  0  0  0  0  0
   -9.3476   -8.6293   15.0707 H   0  0  0  0  0  0  0  0  0  0  0  0
  -10.2063   -7.2987   14.8303 H   0  0  0  0  0  0  0  0  0  0  0  0
   -8.7518   -7.4405   14.1788 H   0  0  0  0  0  0  0  0  0  0  0  0
  -11.7846    1.0832   15.3039 C   0  0  0  0  0  0  0  0  0  0  0  0
  -11.1314    1.2733   14.5971 H   0  0  0  0  0  0  0  0  0  0  0  0
  -12.4134    0.3983   14.9962 H   0  0  0  0  0  0  0  0  0  0  0  0
  -12.2724    1.9038   15.5250 H   0  0  0  0  0  0  0  0  0  0  0  0
   -9.5619   -7.1237   17.4410 C   0  0  0  0  0  0  0  0  0  0  0  0
   -9.5776   -8.0560   17.7487 H   0  0  0  0  0  0  0  0  0  0  0  0
   -9.2326   -6.5474   18.1598 H   0  0  0  0  0  0  0  0  0  0  0  0
  -10.4694   -6.8491   17.1934 H   0  0  0  0  0  0  0  0  0  0  0  0
  -11.8421    0.3078   17.6237 C   0  0  0  0  0  0  0  0  0  0  0  0
  -11.2533    0.0482   18.3618 H   0  0  0  0  0  0  0  0  0  0  0  0
  -12.3613    1.0983   17.8785 H   0  0  0  0  0  0  0  0  0  0  0  0
  -12.4536   -0.4314   17.4194 H   0  0  0  0  0  0  0  0  0  0  0  0
   -8.5655    1.3306   20.2104 C   0  0  0  0  0  0  0  0  0  0  0  0
   -8.7989    1.6927   19.3089 H   0  0  0  0  0  0  0  0  0  0  0  0
   -7.8947    2.2388   20.9485 C   0  0  0  0  0  0  0  0  0  0  0  0
   -7.1195    2.5617   20.4436 H   0  0  0  0  0  0  0  0  0  0  0  0
   -8.4887    2.9901   21.1552 H   0  0  0  0  0  0  0  0  0  0  0  0
   -7.5934    1.8195   21.7826 H   0  0  0  0  0  0  0  0  0  0  0  0
   -9.7674    0.4495   20.8283 C   0  0  0  0  0  0  0  0  0  0  0  0
  -10.1332   -0.1358   20.1335 H   0  0  0  0  0  0  0  0  0  0  0  0
   -9.4295   -0.0935   21.5687 H   0  0  0  0  0  0  0  0  0  0  0  0
  -10.4712    1.0470   21.1576 H   0  0  0  0  0  0  0  0  0  0  0  0
    8.0097   -0.4284    8.1808 C   0  0  0  0  0  0  0  0  0  0  0  0
    6.6962    4.7250   11.7075 O   0  0  0  0  0  1  0  0  0  0  0  0
    5.0257    6.1823   10.1930 O   0  0  0  0  0  1  0  0  0  0  0  0
    6.4645   -2.3021    8.1904 C   0  0  0  0  0  0  0  0  0  0  0  0
    7.7390   -1.9220   10.1737 O   0  0  0  0  0  1  0  0  0  0  0  0
    5.1232   -2.7909    6.3345 O   0  0  0  0  0  1  0  0  0  0  0  0
    2.4109    5.3587    6.2865 O   0  0  0  0  0  1  0  0  0  0  0  0
    6.3060   -0.5733    4.8248 C   0  0  1  0  0  0  0  0  0  0  0  0
    5.9542   -1.4121    4.4137 H   0  0  0  0  0  0  0  0  0  0  0  0
    8.2013    0.2595   11.7219 O   0  0  0  0  0  1  0  0  0  0  0  0
    9.0618    0.3500    8.9621 C   0  0  2  0  0  0  0  0  0  0  0  0
    9.4085   -0.2806    9.6569 H   0  0  0  0  0  0  0  0  0  0  0  0
    2.6530    6.2668    8.8515 O   0  0  0  0  0  1  0  0  0  0  0  0
    8.4870    1.5207    9.7218 C   0  0  0  0  0  0  0  0  0  0  0  0
    5.8479   -3.3280    8.8780 O   0  0  0  0  0  1  0  0  0  0  0  0
    6.7119   -0.9324    6.2456 C   0  0  0  0  0  0  0  0  0  0  0  0
    4.7400    4.3297    4.8609 C   0  0  2  0  0  0  0  0  0  0  0  0
    3.9474    4.8095    4.4859 H   0  0  0  0  0  0  0  0  0  0  0  0
    2.0207    3.2465    4.7671 O   0  0  0  0  0  1  0  0  0  0  0  0
    3.5014   -1.2853    4.7743 O   0  0  0  0  0  1  0  0  0  0  0  0
    1.4755    0.5702    4.6854 O   0  0  0  0  0  1  0  0  0  0  0  0
    7.0586    2.3655   12.9624 O   0  0  0  0  0  1  0  0  0  0  0  0
    6.0900   -1.9552    6.9187 C   0  0  0  0  0  0  0  0  0  0  0  0
    7.5149    5.1655    8.9717 C   0  0  1  0  0  0  0  0  0  0  0  0
    7.4366    5.8384    9.7049 H   0  0  0  0  0  0  0  0  0  0  0  0
    7.3826   -1.5508    8.8395 C   0  0  0  0  0  0  0  0  0  0  0  0
    4.8340    4.7944    6.2384 C   0  0  0  0  0  0  0  0  0  0  0  0
    3.8655    5.7901    8.2505 C   0  0  0  0  0  0  0  0  0  0  0  0
    6.1580    5.2168    8.2217 C   0  0  0  0  0  0  0  0  0  0  0  0
    3.7174    5.2319    6.8706 C   0  0  0  0  0  0  0  0  0  0  0  0
    5.3862    1.8344    4.7840 C   0  0  0  0  0  0  0  0  0  0  0  0
    6.2852    2.1362    4.8344 H   0  0  0  0  0  0  0  0  0  0  0  0
    7.4506    2.5917   11.6354 C   0  0  0  0  0  0  0  0  0  0  0  0
    5.9768    4.7219    6.9572 C   0  0  0  0  0  0  0  0  0  0  0  0
    6.7189    4.2875    6.5509 H   0  0  0  0  0  0  0  0  0  0  0  0
    7.7118    3.8530    9.6569 C   0  0  0  0  0  0  0  0  0  0  0  0
    8.3007    2.7306    9.0751 C   0  0  0  0  0  0  0  0  0  0  0  0
    8.5950    2.8000    8.1736 H   0  0  0  0  0  0  0  0  0  0  0  0
    8.0516    1.4181   11.0416 C   0  0  0  0  0  0  0  0  0  0  0  0
    7.6265   -0.1810    6.9452 C   0  0  0  0  0  0  0  0  0  0  0  0
    8.0115    0.5703    6.5076 H   0  0  0  0  0  0  0  0  0  0  0  0
    4.3724    2.7698    4.7311 C   0  0  0  0  0  0  0  0  0  0  0  0
    7.2867    3.7444   10.9526 C   0  0  0  0  0  0  0  0  0  0  0  0
    4.9961    5.7267    8.9164 C   0  0  0  0  0  0  0  0  0  0  0  0
    5.1406    0.4676    4.7671 C   0  0  0  0  0  0  0  0  0  0  0  0
    3.0799    2.3293    4.7407 C   0  0  0  0  0  0  0  0  0  0  0  0
    2.7523    0.9716    4.7503 C   0  0  0  0  0  0  0  0  0  0  0  0
    3.8237    0.0634    4.8032 C   0  0  0  0  0  0  0  0  0  0  0  0
    7.5272   -0.1237    3.9378 C   0  0  0  0  0  0  0  0  0  0  0  0
    7.9644    0.6638    4.3416 H   0  0  0  0  0  0  0  0  0  0  0  0
    7.2084    0.1267    3.0338 H   0  0  0  0  0  0  0  0  0  0  0  0
    8.6665    5.6030    8.1592 C   0  0  0  0  0  0  0  0  0  0  0  0
    9.4939    5.4129    8.6664 H   0  0  0  0  0  0  0  0  0  0  0  0
    8.6908    5.0599    7.3322 H   0  0  0  0  0  0  0  0  0  0  0  0
    6.0848    6.2245    3.7983 C   0  0  0  0  0  0  0  0  0  0  0  0
    6.3478    6.4630    4.7335 H   0  0  0  0  0  0  0  0  0  0  0  0
    5.8635    4.6767    3.9378 C   0  0  0  0  0  0  0  0  0  0  0  0
    5.6754    4.2965    3.0435 H   0  0  0  0  0  0  0  0  0  0  0  0
    6.6997    4.2603    4.2719 H   0  0  0  0  0  0  0  0  0  0  0  0
   10.2795    0.7030    8.0678 C   0  0  0  0  0  0  0  0  0  0  0  0
   10.9032    1.2763    8.5823 H   0  0  0  0  0  0  0  0  0  0  0  0
    9.9660    1.2280    7.2889 H   0  0  0  0  0  0  0  0  0  0  0  0
    7.3164    6.5836    3.0603 C   0  0  0  0  0  0  0  0  0  0  0  0
    8.0358    5.9591    3.2959 H   0  0  0  0  0  0  0  0  0  0  0  0
    7.5899    7.4979    3.2983 H   0  0  0  0  0  0  0  0  0  0  0  0
    7.1475    6.5383    2.0963 H   0  0  0  0  0  0  0  0  0  0  0  0
    4.8689    6.9788    3.6613 C   0  0  0  0  0  0  0  0  0  0  0  0
    4.2017    6.6440    4.2959 H   0  0  0  0  0  0  0  0  0  0  0  0
    4.5274    6.8823    2.7478 H   0  0  0  0  0  0  0  0  0  0  0  0
    5.0500    7.9263    3.8440 H   0  0  0  0  0  0  0  0  0  0  0  0
    8.6629    7.0091    7.7890 C   0  0  0  0  0  0  0  0  0  0  0  0
    7.7432    7.3530    7.6063 H   0  0  0  0  0  0  0  0  0  0  0  0
   11.0791   -0.5974    7.5365 C   0  0  0  0  0  0  0  0  0  0  0  0
   10.4015   -1.2883    7.2769 H   0  0  0  0  0  0  0  0  0  0  0  0
    9.3005    7.6548    9.0799 C   0  0  0  0  0  0  0  0  0  0  0  0
    9.3476    8.6293    8.9693 H   0  0  0  0  0  0  0  0  0  0  0  0
   10.2063    7.2987    9.2097 H   0  0  0  0  0  0  0  0  0  0  0  0
    8.7518    7.4405    9.8612 H   0  0  0  0  0  0  0  0  0  0  0  0
   11.7846   -1.0832    8.7361 C   0  0  0  0  0  0  0  0  0  0  0  0
   11.1314   -1.2733    9.4429 H   0  0  0  0  0  0  0  0  0  0  0  0
   12.4134   -0.3983    9.0438 H   0  0  0  0  0  0  0  0  0  0  0  0
   12.2724   -1.9038    8.5150 H   0  0  0  0  0  0  0  0  0  0  0  0
    9.5619    7.1237    6.5990 C   0  0  0  0  0  0  0  0  0  0  0  0
    9.5776    8.0560    6.2913 H   0  0  0  0  0  0  0  0  0  0  0  0
    9.2326    6.5474    5.8802 H   0  0  0  0  0  0  0  0  0  0  0  0
   10.4694    6.8491    6.8466 H   0  0  0  0  0  0  0  0  0  0  0  0
   11.8421   -0.3078    6.4163 C   0  0  0  0  0  0  0  0  0  0  0  0
   11.2533   -0.0482    5.6782 H   0  0  0  0  0  0  0  0  0  0  0  0
   12.3613   -1.0983    6.1615 H   0  0  0  0  0  0  0  0  0  0  0  0
   12.4536    0.4314    6.6206 H   0  0  0  0  0  0  0  0  0  0  0  0
    8.5655   -1.3306    3.8296 C   0  0  0  0  0  0  0  0  0  0  0  0
    8.7989   -1.6927    4.7311 H   0  0  0  0  0  0  0  0  0  0  0  0
    7.8947   -2.2388    3.0915 C   0  0  0  0  0  0  0  0  0  0  0  0
    7.1195   -2.5617    3.5964 H   0  0  0  0  0  0  0  0  0  0  0  0
    8.4887   -2.9901    2.8848 H   0  0  0  0  0  0  0  0  0  0  0  0
    7.5934   -1.8195    2.2574 H   0  0  0  0  0  0  0  0  0  0  0  0
    9.7674   -0.4495    3.2117 C   0  0  0  0  0  0  0  0  0  0  0  0
   10.1332    0.1358    3.9065 H   0  0  0  0  0  0  0  0  0  0  0  0
    9.4295    0.0935    2.4713 H   0  0  0  0  0  0  0  0  0  0  0  0
   10.4712   -1.0470    2.8824 H   0  0  0  0  0  0  0  0  0  0  0  0
    4.3759    6.7224   15.8592 C   0  0  0  0  0  0  0  0  0  0  0  0
   -0.7439    8.1616   12.3325 O   0  0  0  0  0  1  0  0  0  0  0  0
   -2.8412    7.4435   13.8470 O   0  0  0  0  0  1  0  0  0  0  0  0
    5.2259    4.4474   15.8496 C   0  0  0  0  0  0  0  0  0  0  0  0
    5.5340    5.7412   13.8663 O   0  0  0  0  0  1  0  0  0  0  0  0
    4.9786    3.0414   17.7055 O   0  0  0  0  0  1  0  0  0  0  0  0
   -3.4353    4.7673   17.7535 O   0  0  0  0  0  1  0  0  0  0  0  0
    3.6495    5.1745   19.2152 C   0  0  2  0  0  0  0  0  0  0  0  0
    4.2000    4.4504   19.6263 H   0  0  0  0  0  0  0  0  0  0  0  0
    3.8759    7.2323   12.3181 O   0  0  0  0  0  1  0  0  0  0  0  0
    4.2278    8.0228   15.0779 C   0  0  1  0  0  0  0  0  0  0  0  0
    4.9472    8.0077   14.3831 H   0  0  0  0  0  0  0  0  0  0  0  0
   -4.1007    5.4310   15.1885 O   0  0  0  0  0  1  0  0  0  0  0  0
    2.9265    8.1103   14.3182 C   0  0  0  0  0  0  0  0  0  0  0  0
    5.8061    3.4004   15.1620 O   0  0  0  0  0  1  0  0  0  0  0  0
    4.1634    5.3465   17.7944 C   0  0  0  0  0  0  0  0  0  0  0  0
   -1.3796    6.2698   19.1791 C   0  0  1  0  0  0  0  0  0  0  0  0
   -2.1914    5.8233   19.5541 H   0  0  0  0  0  0  0  0  0  0  0  0
   -1.8012    3.3732   19.2729 O   0  0  0  0  0  1  0  0  0  0  0  0
    2.8638    2.3897   19.2657 O   0  0  0  0  0  1  0  0  0  0  0  0
    0.2439    1.5629   19.3546 O   0  0  0  0  0  1  0  0  0  0  0  0
    1.4807    7.2957   11.0776 O   0  0  0  0  0  1  0  0  0  0  0  0
    4.7382    4.2965   17.1213 C   0  0  0  0  0  0  0  0  0  0  0  0
   -0.7160    9.0909   15.0683 C   0  0  2  0  0  0  0  0  0  0  0  0
   -1.3379    9.3595   14.3351 H   0  0  0  0  0  0  0  0  0  0  0  0
    5.0343    5.6181   15.2005 C   0  0  0  0  0  0  0  0  0  0  0  0
   -1.7351    6.5836   17.8016 C   0  0  0  0  0  0  0  0  0  0  0  0
   -3.0816    6.2427   15.7895 C   0  0  0  0  0  0  0  0  0  0  0  0
   -1.4389    7.9414   15.8183 C   0  0  0  0  0  0  0  0  0  0  0  0
   -2.6723    5.8353   17.1694 C   0  0  0  0  0  0  0  0  0  0  0  0
    1.1044    5.5818   19.2560 C   0  0  0  0  0  0  0  0  0  0  0  0
    1.2926    6.5112   19.2056 H   0  0  0  0  0  0  0  0  0  0  0  0
    1.4808    7.7482   12.4046 C   0  0  0  0  0  0  0  0  0  0  0  0
   -1.1009    7.5370   17.0828 C   0  0  0  0  0  0  0  0  0  0  0  0
   -0.3536    7.9625   17.4891 H   0  0  0  0  0  0  0  0  0  0  0  0
    0.5191    8.6051   14.3831 C   0  0  0  0  0  0  0  0  0  0  0  0
    1.7856    8.5539   14.9649 C   0  0  0  0  0  0  0  0  0  0  0  0
    1.8726    8.8435   15.8664 H   0  0  0  0  0  0  0  0  0  0  0  0
    2.7977    7.6819   12.9984 C   0  0  0  0  0  0  0  0  0  0  0  0
    3.9700    6.5142   17.0948 C   0  0  0  0  0  0  0  0  0  0  0  0
    3.5119    7.2233   17.5324 H   0  0  0  0  0  0  0  0  0  0  0  0
   -0.2125    5.1715   19.3089 C   0  0  0  0  0  0  0  0  0  0  0  0
    0.4006    8.1827   13.0874 C   0  0  0  0  0  0  0  0  0  0  0  0
   -2.4614    7.1901   15.1236 C   0  0  0  0  0  0  0  0  0  0  0  0
    2.1653    4.6857   19.2729 C   0  0  0  0  0  0  0  0  0  0  0  0
   -0.4773    3.8319   19.2993 C   0  0  0  0  0  0  0  0  0  0  0  0
    0.5347    2.8694   19.2897 C   0  0  0  0  0  0  0  0  0  0  0  0
    1.8570    3.3431   19.2368 C   0  0  0  0  0  0  0  0  0  0  0  0
    3.8707    6.4569   20.1022 C   0  0  0  0  0  0  0  0  0  0  0  0
    3.4073    7.2293   19.6984 H   0  0  0  0  0  0  0  0  0  0  0  0
    3.4945    6.3060   21.0062 H   0  0  0  0  0  0  0  0  0  0  0  0
   -0.5191   10.3069   15.8808 C   0  0  0  0  0  0  0  0  0  0  0  0
    0.0592   10.9284   15.3736 H   0  0  0  0  0  0  0  0  0  0  0  0
   -0.0366   10.0564   16.7078 H   0  0  0  0  0  0  0  0  0  0  0  0
   -2.3482    8.3818   20.2417 C   0  0  0  0  0  0  0  0  0  0  0  0
   -2.4232    8.7289   19.3065 H   0  0  0  0  0  0  0  0  0  0  0  0
   -1.1184    7.4163   20.1022 C   0  0  0  0  0  0  0  0  0  0  0  0
   -0.8832    7.0633   20.9965 H   0  0  0  0  0  0  0  0  0  0  0  0
   -0.3397    7.9323   19.7681 H   0  0  0  0  0  0  0  0  0  0  0  0
    4.5309    9.2538   15.9722 C   0  0  0  0  0  0  0  0  0  0  0  0
    4.3463   10.0806   15.4577 H   0  0  0  0  0  0  0  0  0  0  0  0
    3.9195    9.2448   16.7511 H   0  0  0  0  0  0  0  0  0  0  0  0
   -2.0434    9.6280   20.9797 C   0  0  0  0  0  0  0  0  0  0  0  0
   -1.1428    9.9388   20.7441 H   0  0  0  0  0  0  0  0  0  0  0  0
   -2.6984   10.3220   20.7417 H   0  0  0  0  0  0  0  0  0  0  0  0
   -2.0886    9.4590   21.9437 H   0  0  0  0  0  0  0  0  0  0  0  0
   -3.6094    7.7060   20.3787 C   0  0  0  0  0  0  0  0  0  0  0  0
   -3.6530    6.9608   19.7441 H   0  0  0  0  0  0  0  0  0  0  0  0
   -3.6966    7.3620   21.2922 H   0  0  0  0  0  0  0  0  0  0  0  0
   -4.3394    8.3366   20.1960 H   0  0  0  0  0  0  0  0  0  0  0  0
   -1.7386   11.0069   16.2510 C   0  0  0  0  0  0  0  0  0  0  0  0
   -2.4963   10.3823   16.4337 H   0  0  0  0  0  0  0  0  0  0  0  0
    6.0569    9.2961   16.5035 C   0  0  0  0  0  0  0  0  0  0  0  0
    6.3165    8.3638   16.7631 H   0  0  0  0  0  0  0  0  0  0  0  0
   -1.9790   11.8819   14.9601 C   0  0  0  0  0  0  0  0  0  0  0  0
   -2.7994   12.4099   15.0707 H   0  0  0  0  0  0  0  0  0  0  0  0
   -1.2177   12.4883   14.8303 H   0  0  0  0  0  0  0  0  0  0  0  0
   -2.0678   11.2995   14.1788 H   0  0  0  0  0  0  0  0  0  0  0  0
    6.8304    9.6642   15.3039 C   0  0  0  0  0  0  0  0  0  0  0  0
    6.6684    9.0034   14.5971 H   0  0  0  0  0  0  0  0  0  0  0  0
    6.5516   10.5512   14.9962 H   0  0  0  0  0  0  0  0  0  0  0  0
    7.7850    9.6763   15.5250 H   0  0  0  0  0  0  0  0  0  0  0  0
   -1.3883   11.8427   17.4410 C   0  0  0  0  0  0  0  0  0  0  0  0
   -2.1879   12.3224   17.7487 H   0  0  0  0  0  0  0  0  0  0  0  0
   -1.0539   11.2694   18.1598 H   0  0  0  0  0  0  0  0  0  0  0  0
   -0.6968   12.4913   17.1934 H   0  0  0  0  0  0  0  0  0  0  0  0
    6.1876   10.1017   17.6237 C   0  0  0  0  0  0  0  0  0  0  0  0
    5.6684    9.7216   18.3618 H   0  0  0  0  0  0  0  0  0  0  0  0
    7.1318   10.1560   17.8785 H   0  0  0  0  0  0  0  0  0  0  0  0
    5.8532   11.0008   17.4194 H   0  0  0  0  0  0  0  0  0  0  0  0
    5.4351    6.7526   20.2104 C   0  0  0  0  0  0  0  0  0  0  0  0
    5.8654    6.7737   19.3089 H   0  0  0  0  0  0  0  0  0  0  0  0
    5.8862    5.7176   20.9485 C   0  0  0  0  0  0  0  0  0  0  0  0
    5.7782    4.8849   20.4436 H   0  0  0  0  0  0  0  0  0  0  0  0
    6.8338    5.8564   21.1552 H   0  0  0  0  0  0  0  0  0  0  0  0
    5.3724    5.6663   21.7826 H   0  0  0  0  0  0  0  0  0  0  0  0
    5.2730    8.2341   20.8283 C   0  0  0  0  0  0  0  0  0  0  0  0
    4.9490    8.8435   20.1335 H   0  0  0  0  0  0  0  0  0  0  0  0
    4.6338    8.2129   21.5687 H   0  0  0  0  0  0  0  0  0  0  0  0
    6.1423    8.5448   21.1576 H   0  0  0  0  0  0  0  0  0  0  0  0
  1 26  1  0  0  0  0
  1 11  1  0  0  0  0
  4 26  2  0  0  0  0
  4 15  1  0  0  0  0
  6 23  1  0  0  0  0
  7 30  1  0  0  0  0
  8  9  1  6  0  0  0
  8 16  1  0  0  0  0
 11 12  1  1  0  0  0
 11 14  1  0  0  0  0
 14 39  1  0  0  0  0
 16 23  2  0  0  0  0
 16 40  1  0  0  0  0
 17 18  1  6  0  0  0
 17 27  1  0  0  0  0
 20 48  1  0  0  0  0
 21 47  1  0  0  0  0
 23  4  1  0  0  0  0
 24 36  1  0  0  0  0
 24 25  1  1  0  0  0
 26  5  1  0  0  0  0
 27 30  2  0  0  0  0
 27 34  1  0  0  0  0
 28 13  1  0  0  0  0
 28 44  2  0  0  0  0
 29 44  1  0  0  0  0
 29 24  1  0  0  0  0
 30 28  1  0  0  0  0
 31 32  1  0  0  0  0
 33 22  1  0  0  0  0
 34 29  2  0  0  0  0
 35 34  1  0  0  0  0
 36 43  2  0  0  0  0
 37 36  1  0  0  0  0
 37 14  2  0  0  0  0
 38 37  1  0  0  0  0
 39 33  2  0  0  0  0
 39 10  1  0  0  0  0
 40  1  2  0  0  0  0
 41 40  1  0  0  0  0
 42 46  1  0  0  0  0
 42 31  2  0  0  0  0
 42 17  1  0  0  0  0
 43 33  1  0  0  0  0
 43  2  1  0  0  0  0
 44  3  1  0  0  0  0
 45 31  1  0  0  0  0
 45 48  2  0  0  0  0
 45  8  1  0  0  0  0
 46 47  2  0  0  0  0
 46 19  1  0  0  0  0
 47 48  1  0  0  0  0
 49 50  1  0  0  0  0
 49  8  1  0  0  0  0
 51 49  1  0  0  0  0
 52 53  1  0  0  0  0
 52 24  1  0  0  0  0
 54 52  1  0  0  0  0
 55 57  1  0  0  0  0
 55 56  1  0  0  0  0
 57 59  1  0  0  0  0
 57 17  1  0  0  0  0
 58 57  1  0  0  0  0
 60 61  1  0  0  0  0
 60 11  1  0  0  0  0
 62 60  1  0  0  0  0
 63 64  1  0  0  0  0
 63 65  1  0  0  0  0
 63 55  1  0  0  0  0
 66 63  1  0  0  0  0
 67 55  1  0  0  0  0
 67 70  1  0  0  0  0
 67 68  1  0  0  0  0
 69 67  1  0  0  0  0
 71 52  1  0  0  0  0
 71 75  1  0  0  0  0
 72 71  1  0  0  0  0
 73 60  1  0  0  0  0
 73 79  1  0  0  0  0
 74 73  1  0  0  0  0
 75 77  1  0  0  0  0
 75 78  1  0  0  0  0
 76 75  1  0  0  0  0
 79 81  1  0  0  0  0
 79 80  1  0  0  0  0
 82 79  1  0  0  0  0
 83 86  1  0  0  0  0
 83 71  1  0  0  0  0
 84 83  1  0  0  0  0
 85 83  1  0  0  0  0
 87 90  1  0  0  0  0
 87 73  1  0  0  0  0
 88 87  1  0  0  0  0
 89 87  1  0  0  0  0
 91 49  1  0  0  0  0
 91 92  1  0  0  0  0
 93 94  1  0  0  0  0
 93 91  1  0  0  0  0
 95 93  1  0  0  0  0
 96 93  1  0  0  0  0
 97 91  1  0  0  0  0
 97 98  1  0  0  0  0
 99 97  1  0  0  0  0
100 97  1  0  0  0  0
101126  1  0  0  0  0
101111  1  0  0  0  0
104126  2  0  0  0  0
104115  1  0  0  0  0
106123  1  0  0  0  0
107130  1  0  0  0  0
108109  1  6  0  0  0
108116  1  0  0  0  0
111112  1  1  0  0  0
111114  1  0  0  0  0
114139  1  0  0  0  0
116123  2  0  0  0  0
116140  1  0  0  0  0
117118  1  6  0  0  0
117127  1  0  0  0  0
120148  1  0  0  0  0
121147  1  0  0  0  0
123104  1  0  0  0  0
124136  1  0  0  0  0
124125  1  1  0  0  0
126105  1  0  0  0  0
127130  2  0  0  0  0
127134  1  0  0  0  0
128113  1  0  0  0  0
128144  2  0  0  0  0
129144  1  0  0  0  0
129124  1  0  0  0  0
130128  1  0  0  0  0
131132  1  0  0  0  0
133122  1  0  0  0  0
134129  2  0  0  0  0
135134  1  0  0  0  0
136143  2  0  0  0  0
137136  1  0  0  0  0
137114  2  0  0  0  0
138137  1  0  0  0  0
139133  2  0  0  0  0
139110  1  0  0  0  0
140101  2  0  0  0  0
141140  1  0  0  0  0
142146  1  0  0  0  0
142131  2  0  0  0  0
142117  1  0  0  0  0
143133  1  0  0  0  0
143102  1  0  0  0  0
144103  1  0  0  0  0
145131  1  0  0  0  0
145148  2  0  0  0  0
145108  1  0  0  0  0
146147  2  0  0  0  0
146119  1  0  0  0  0
147148  1  0  0  0  0
149150  1  0  0  0  0
149108  1  0  0  0  0
151149  1  0  0  0  0
152153  1  0  0  0  0
152124  1  0  0  0  0
154152  1  0  0  0  0
155157  1  0  0  0  0
155156  1  0  0  0  0
157159  1  0  0  0  0
157117  1  0  0  0  0
158157  1  0  0  0  0
160161  1  0  0  0  0
160111  1  0  0  0  0
162160  1  0  0  0  0
163164  1  0  0  0  0
163165  1  0  0  0  0
163155  1  0  0  0  0
166163  1  0  0  0  0
167155  1  0  0  0  0
167170  1  0  0  0  0
167168  1  0  0  0  0
169167  1  0  0  0  0
171152  1  0  0  0  0
171175  1  0  0  0  0
172171  1  0  0  0  0
173160  1  0  0  0  0
173179  1  0  0  0  0
174173  1  0  0  0  0
175177  1  0  0  0  0
175178  1  0  0  0  0
176175  1  0  0  0  0
179181  1  0  0  0  0
179180  1  0  0  0  0
182179  1  0  0  0  0
183186  1  0  0  0  0
183171  1  0  0  0  0
184183  1  0  0  0  0
185183  1  0  0  0  0
187190  1  0  0  0  0
187173  1  0  0  0  0
188187  1  0  0  0  0
189187  1  0  0  0  0
191149  1  0  0  0  0
191192  1  0  0  0  0
193194  1  0  0  0  0
193191  1  0  0  0  0
195193  1  0  0  0  0
196193  1  0  0  0  0
197191  1  0  0  0  0
197198  1  0  0  0  0
199197  1  0  0  0  0
200197  1  0  0  0  0
201240  1  0  0  0  0
202243  1  0  0  0  0
203244  1  0  0  0  0
204223  2  0  0  0  0
205226  1  0  0  0  0
208245  1  0  0  0  0
208209  1  1  0  0  0
208249  1  0  0  0  0
210239  1  0  0  0  0
211212  1  6  0  0  0
211201  1  0  0  0  0
211260  1  0  0  0  0
213228  1  0  0  0  0
214237  1  0  0  0  0
214211  1  0  0  0  0
215204  1  0  0  0  0
216208  1  0  0  0  0
217242  1  0  0  0  0
217218  1  1  0  0  0
217257  1  0  0  0  0
219246  1  0  0  0  0
222233  1  0  0  0  0
223206  1  0  0  0  0
223216  1  0  0  0  0
224225  1  6  0  0  0
224229  1  0  0  0  0
224252  1  0  0  0  0
226204  1  0  0  0  0
226201  2  0  0  0  0
227217  1  0  0  0  0
228230  2  0  0  0  0
229234  1  0  0  0  0
230207  1  0  0  0  0
230227  1  0  0  0  0
231245  2  0  0  0  0
231242  1  0  0  0  0
232231  1  0  0  0  0
233239  1  0  0  0  0
233243  2  0  0  0  0
234235  1  0  0  0  0
234227  2  0  0  0  0
236237  2  0  0  0  0
236224  1  0  0  0  0
237238  1  0  0  0  0
239214  2  0  0  0  0
240241  1  0  0  0  0
240216  2  0  0  0  0
243236  1  0  0  0  0
244228  1  0  0  0  0
244229  2  0  0  0  0
246242  2  0  0  0  0
247246  1  0  0  0  0
247221  1  0  0  0  0
248220  1  0  0  0  0
248245  1  0  0  0  0
248247  2  0  0  0  0
249291  1  0  0  0  0
249251  1  0  0  0  0
250249  1  0  0  0  0
252271  1  0  0  0  0
252254  1  0  0  0  0
253252  1  0  0  0  0
255267  1  0  0  0  0
255263  1  0  0  0  0
256255  1  0  0  0  0
257255  1  0  0  0  0
257258  1  0  0  0  0
259257  1  0  0  0  0
260273  1  0  0  0  0
260262  1  0  0  0  0
261260  1  0  0  0  0
263266  1  0  0  0  0
264263  1  0  0  0  0
265263  1  0  0  0  0
267269  1  0  0  0  0
268267  1  0  0  0  0
270267  1  0  0  0  0
271272  1  0  0  0  0
271283  1  0  0  0  0
273274  1  0  0  0  0
273287  1  0  0  0  0
275276  1  0  0  0  0
275271  1  0  0  0  0
277275  1  0  0  0  0
278275  1  0  0  0  0
279282  1  0  0  0  0
279273  1  0  0  0  0
280279  1  0  0  0  0
281279  1  0  0  0  0
283284  1  0  0  0  0
283285  1  0  0  0  0
286283  1  0  0  0  0
287289  1  0  0  0  0
287288  1  0  0  0  0
290287  1  0  0  0  0
291297  1  0  0  0  0
291293  1  0  0  0  0
292291  1  0  0  0  0
293295  1  0  0  0  0
293296  1  0  0  0  0
294293  1  0  0  0  0
297300  1  0  0  0  0
297299  1  0  0  0  0
298297  1  0  0  0  0
301340  1  0  0  0  0
302343  1  0  0  0  0
303344  1  0  0  0  0
304323  2  0  0  0  0
305326  1  0  0  0  0
308345  1  0  0  0  0
308309  1  1  0  0  0
308349  1  0  0  0  0
310339  1  0  0  0  0
311312  1  6  0  0  0
311301  1  0  0  0  0
311360  1  0  0  0  0
313328  1  0  0  0  0
314337  1  0  0  0  0
314311  1  0  0  0  0
315304  1  0  0  0  0
316308  1  0  0  0  0
317342  1  0  0  0  0
317318  1  1  0  0  0
317357  1  0  0  0  0
319346  1  0  0  0  0
322333  1  0  0  0  0
323306  1  0  0  0  0
323316  1  0  0  0  0
324325  1  6  0  0  0
324329  1  0  0  0  0
324352  1  0  0  0  0
326304  1  0  0  0  0
326301  2  0  0  0  0
327317  1  0  0  0  0
328330  2  0  0  0  0
329334  1  0  0  0  0
330307  1  0  0  0  0
330327  1  0  0  0  0
331345  2  0  0  0  0
331342  1  0  0  0  0
332331  1  0  0  0  0
333339  1  0  0  0  0
333343  2  0  0  0  0
334335  1  0  0  0  0
334327  2  0  0  0  0
336337  2  0  0  0  0
336324  1  0  0  0  0
337338  1  0  0  0  0
339314  2  0  0  0  0
340341  1  0  0  0  0
340316  2  0  0  0  0
343336  1  0  0  0  0
344328  1  0  0  0  0
344329  2  0  0  0  0
346342  2  0  0  0  0
347346  1  0  0  0  0
347321  1  0  0  0  0
348320  1  0  0  0  0
348345  1  0  0  0  0
348347  2  0  0  0  0
349391  1  0  0  0  0
349351  1  0  0  0  0
350349  1  0  0  0  0
352371  1  0  0  0  0
352354  1  0  0  0  0
353352  1  0  0  0  0
355367  1  0  0  0  0
355363  1  0  0  0  0
356355  1  0  0  0  0
357355  1  0  0  0  0
357358  1  0  0  0  0
359357  1  0  0  0  0
360373  1  0  0  0  0
360362  1  0  0  0  0
361360  1  0  0  0  0
363366  1  0  0  0  0
364363  1  0  0  0  0
365363  1  0  0  0  0
367369  1  0  0  0  0
368367  1  0  0  0  0
370367  1  0  0  0  0
371372  1  0  0  0  0
371383  1  0  0  0  0
373374  1  0  0  0  0
373387  1  0  0  0  0
375376  1  0  0  0  0
375371  1  0  0  0  0
377375  1  0  0  0  0
378375  1  0  0  0  0
379382  1  0  0  0  0
379373  1  0  0  0  0
380379  1  0  0  0  0
381379  1  0  0  0  0
383384  1  0  0  0  0
383385  1  0  0  0  0
386383  1  0  0  0  0
387389  1  0  0  0  0
387388  1  0  0  0  0
390387  1  0  0  0  0
391397  1  0  0  0  0
391393  1  0  0  0  0
392391  1  0  0  0  0
393395  1  0  0  0  0
393396  1  0  0  0  0
394393  1  0  0  0  0
397400  1  0  0  0  0
397399  1  0  0  0  0
398397  1  0  0  0  0
401426  1  0  0  0  0
401411  1  0  0  0  0
404426  2  0  0  0  0
404415  1  0  0  0  0
406423  1  0  0  0  0
407430  1  0  0  0  0
408409  1  6  0  0  0
408416  1  0  0  0  0
411412  1  1  0  0  0
411414  1  0  0  0  0
414439  1  0  0  0  0
416423  2  0  0  0  0
416440  1  0  0  0  0
417418  1  6  0  0  0
417427  1  0  0  0  0
420448  1  0  0  0  0
421447  1  0  0  0  0
423404  1  0  0  0  0
424436  1  0  0  0  0
424425  1  1  0  0  0
426405  1  0  0  0  0
427430  2  0  0  0  0
427434  1  0  0  0  0
428413  1  0  0  0  0
428444  2  0  0  0  0
429444  1  0  0  0  0
429424  1  0  0  0  0
430428  1  0  0  0  0
431432  1  0  0  0  0
433422  1  0  0  0  0
434429  2  0  0  0  0
435434  1  0  0  0  0
436443  2  0  0  0  0
437436  1  0  0  0  0
437414  2  0  0  0  0
438437  1  0  0  0  0
439433  2  0  0  0  0
439410  1  0  0  0  0
440401  2  0  0  0  0
441440  1  0  0  0  0
442446  1  0  0  0  0
442431  2  0  0  0  0
442417  1  0  0  0  0
443433  1  0  0  0  0
443402  1  0  0  0  0
444403  1  0  0  0  0
445431  1  0  0  0  0
445448  2  0  0  0  0
445408  1  0  0  0  0
446447  2  0  0  0  0
446419  1  0  0  0  0
447448  1  0  0  0  0
449450  1  0  0  0  0
449408  1  0  0  0  0
451449  1  0  0  0  0
452453  1  0  0  0  0
452424  1  0  0  0  0
454452  1  0  0  0  0
455457  1  0  0  0  0
455456  1  0  0  0  0
457459  1  0  0  0  0
457417  1  0  0  0  0
458457  1  0  0  0  0
460461  1  0  0  0  0
460411  1  0  0  0  0
462460  1  0  0  0  0
463464  1  0  0  0  0
463465  1  0  0  0  0
463455  1  0  0  0  0
466463  1  0  0  0  0
467455  1  0  0  0  0
467470  1  0  0  0  0
467468  1  0  0  0  0
469467  1  0  0  0  0
471452  1  0  0  0  0
471475  1  0  0  0  0
472471  1  0  0  0  0
473460  1  0  0  0  0
473479  1  0  0  0  0
474473  1  0  0  0  0
475477  1  0  0  0  0
475478  1  0  0  0  0
476475  1  0  0  0  0
479481  1  0  0  0  0
479480  1  0  0  0  0
482479  1  0  0  0  0
483486  1  0  0  0  0
483471  1  0  0  0  0
484483  1  0  0  0  0
485483  1  0  0  0  0
487490  1  0  0  0  0
487473  1  0  0  0  0
488487  1  0  0  0  0
489487  1  0  0  0  0
491449  1  0  0  0  0
491492  1  0  0  0  0
493494  1  0  0  0  0
493491  1  0  0  0  0
495493  1  0  0  0  0
496493  1  0  0  0  0
497491  1  0  0  0  0
497498  1  0  0  0  0
499497  1  0  0  0  0
500497  1  0  0  0  0
501540  1  0  0  0  0
502543  1  0  0  0  0
503544  1  0  0  0  0
504523  2  0  0  0  0
505526  1  0  0  0  0
508545  1  0  0  0  0
508509  1  1  0  0  0
508549  1  0  0  0  0
510539  1  0  0  0  0
511512  1  6  0  0  0
511501  1  0  0  0  0
511560  1  0  0  0  0
513528  1  0  0  0  0
514537  1  0  0  0  0
514511  1  0  0  0  0
515504  1  0  0  0  0
516508  1  0  0  0  0
517542  1  0  0  0  0
517518  1  1  0  0  0
517557  1  0  0  0  0
519546  1  0  0  0  0
522533  1  0  0  0  0
523506  1  0  0  0  0
523516  1  0  0  0  0
524525  1  6  0  0  0
524529  1  0  0  0  0
524552  1  0  0  0  0
526504  1  0  0  0  0
526501  2  0  0  0  0
527517  1  0  0  0  0
528530  2  0  0  0  0
529534  1  0  0  0  0
530507  1  0  0  0  0
530527  1  0  0  0  0
531545  2  0  0  0  0
531542  1  0  0  0  0
532531  1  0  0  0  0
533539  1  0  0  0  0
533543  2  0  0  0  0
534535  1  0  0  0  0
534527  2  0  0  0  0
536537  2  0  0  0  0
536524  1  0  0  0  0
537538  1  0  0  0  0
539514  2  0  0  0  0
540541  1  0  0  0  0
540516  2  0  0  0  0
543536  1  0  0  0  0
544528  1  0  0  0  0
544529  2  0  0  0  0
546542  2  0  0  0  0
547546  1  0  0  0  0
547521  1  0  0  0  0
548520  1  0  0  0  0
548545  1  0  0  0  0
548547  2  0  0  0  0
549591  1  0  0  0  0
549551  1  0  0  0  0
550549  1  0  0  0  0
552571  1  0  0  0  0
552554  1  0  0  0  0
553552  1  0  0  0  0
555567  1  0  0  0  0
555563  1  0  0  0  0
556555  1  0  0  0  0
557555  1  0  0  0  0
557558  1  0  0  0  0
559557  1  0  0  0  0
560573  1  0  0  0  0
560562  1  0  0  0  0
561560  1  0  0  0  0
563566  1  0  0  0  0
564563  1  0  0  0  0
565563  1  0  0  0  0
567569  1  0  0  0  0
568567  1  0  0  0  0
570567  1  0  0  0  0
571572  1  0  0  0  0
571583  1  0  0  0  0
573574  1  0  0  0  0
573587  1  0  0  0  0
575576  1  0  0  0  0
575571  1  0  0  0  0
577575  1  0  0  0  0
578575  1  0  0  0  0
579582  1  0  0  0  0
579573  1  0  0  0  0
580579  1  0  0  0  0
581579  1  0  0  0  0
583584  1  0  0  0  0
583585  1  0  0  0  0
586583  1  0  0  0  0
587589  1  0  0  0  0
587588  1  0  0  0  0
590587  1  0  0  0  0
591597  1  0  0  0  0
591593  1  0  0  0  0
592591  1  0  0  0  0
593595  1  0  0  0  0
593596  1  0  0  0  0
594593  1  0  0  0  0
597600  1  0  0  0  0
597599  1  0  0  0  0
598597  1  0  0  0  0
M  END
$$$$
