Ru_guest_for_PA.xyz
 OpenBabel09282217013D

 61 69  0  0  0  0  0  0  0  0999 V2000
   -0.1932   -0.6447   -0.0677 Ru  0  0  0  0  0  0  0  0  0  0  0  0
   -0.8020   -1.7437   -1.9860 N   0  0  0  0  0  0  0  0  0  0  0  0
    0.3669    0.7661    1.6511 N   0  0  0  0  0  0  0  0  0  0  0  0
   -1.2370   -2.0197    1.4416 N   0  0  0  0  0  0  0  0  0  0  0  0
    1.3246   -2.3077    0.3670 N   0  0  0  0  0  0  0  0  0  0  0  0
   -1.7664    1.0223   -0.1331 N   0  0  0  0  0  0  0  0  0  0  0  0
    0.9546    0.4144   -1.7467 N   0  0  0  0  0  0  0  0  0  0  0  0
   -0.2073   -1.2515   -3.1233 C   0  0  0  0  0  0  0  0  0  0  0  0
   -1.6722   -2.7896   -2.0225 C   0  0  0  0  0  0  0  0  0  0  0  0
   -0.4732    1.8461    1.7823 C   0  0  0  0  0  0  0  0  0  0  0  0
    1.4301    0.5750    2.4790 C   0  0  0  0  0  0  0  0  0  0  0  0
   -0.4759   -3.0939    1.8366 C   0  0  0  0  0  0  0  0  0  0  0  0
   -2.4956   -1.8142    1.9172 C   0  0  0  0  0  0  0  0  0  0  0  0
    0.8782   -3.2501    1.2623 C   0  0  0  0  0  0  0  0  0  0  0  0
    2.5620   -2.3771   -0.1957 C   0  0  0  0  0  0  0  0  0  0  0  0
   -1.5989    1.9854    0.8331 C   0  0  0  0  0  0  0  0  0  0  0  0
   -2.7843    1.0755   -1.0351 C   0  0  0  0  0  0  0  0  0  0  0  0
    0.7177   -0.1043   -2.9974 C   0  0  0  0  0  0  0  0  0  0  0  0
    1.8007    1.4620   -1.5492 C   0  0  0  0  0  0  0  0  0  0  0  0
   -0.5184   -1.8681   -4.3467 C   0  0  0  0  0  0  0  0  0  0  0  0
   -1.9846   -3.4021   -3.2251 C   0  0  0  0  0  0  0  0  0  0  0  0
   -0.2088    2.7623    2.8140 C   0  0  0  0  0  0  0  0  0  0  0  0
    1.6977    1.4746    3.4979 C   0  0  0  0  0  0  0  0  0  0  0  0
   -1.0340   -3.9885    2.7651 C   0  0  0  0  0  0  0  0  0  0  0  0
   -3.0530   -2.6924    2.8322 C   0  0  0  0  0  0  0  0  0  0  0  0
    1.7414   -4.3106    1.5849 C   0  0  0  0  0  0  0  0  0  0  0  0
    3.4191   -3.4192    0.1180 C   0  0  0  0  0  0  0  0  0  0  0  0
   -2.5153    3.0498    0.8655 C   0  0  0  0  0  0  0  0  0  0  0  0
   -3.6923    2.1214   -1.0090 C   0  0  0  0  0  0  0  0  0  0  0  0
    1.3758    0.4866   -4.0890 C   0  0  0  0  0  0  0  0  0  0  0  0
    2.4538    2.0493   -2.6204 C   0  0  0  0  0  0  0  0  0  0  0  0
   -1.4028   -2.9380   -4.3896 C   0  0  0  0  0  0  0  0  0  0  0  0
    0.8725    2.5706    3.6641 C   0  0  0  0  0  0  0  0  0  0  0  0
   -2.3163   -3.7818    3.2567 C   0  0  0  0  0  0  0  0  0  0  0  0
    3.0036   -4.3887    1.0111 C   0  0  0  0  0  0  0  0  0  0  0  0
   -3.5537    3.1113   -0.0547 C   0  0  0  0  0  0  0  0  0  0  0  0
    2.2374    1.5582   -3.8939 C   0  0  0  0  0  0  0  0  0  0  0  0
   -2.1488   -3.1717   -1.1206 H   0  0  0  0  0  0  0  0  0  0  0  0
    2.0993   -0.2771    2.3669 H   0  0  0  0  0  0  0  0  0  0  0  0
   -3.0998   -0.9670    1.5955 H   0  0  0  0  0  0  0  0  0  0  0  0
    2.9164   -1.6239   -0.8982 H   0  0  0  0  0  0  0  0  0  0  0  0
   -2.9197    0.3061   -1.7941 H   0  0  0  0  0  0  0  0  0  0  0  0
    1.9933    1.8651   -0.5558 H   0  0  0  0  0  0  0  0  0  0  0  0
   -0.0997   -1.5569   -5.3129 H   0  0  0  0  0  0  0  0  0  0  0  0
   -2.6826   -4.2481   -3.2884 H   0  0  0  0  0  0  0  0  0  0  0  0
   -0.8156    3.6564    3.0088 H   0  0  0  0  0  0  0  0  0  0  0  0
    2.5473    1.3489    4.1830 H   0  0  0  0  0  0  0  0  0  0  0  0
   -0.5139   -4.8762    3.1486 H   0  0  0  0  0  0  0  0  0  0  0  0
   -4.0657   -2.5546    3.2353 H   0  0  0  0  0  0  0  0  0  0  0  0
    1.4855   -5.1166    2.2852 H   0  0  0  0  0  0  0  0  0  0  0  0
    4.4235   -3.5043   -0.3188 H   0  0  0  0  0  0  0  0  0  0  0  0
   -2.4733    3.8716    1.5924 H   0  0  0  0  0  0  0  0  0  0  0  0
   -4.5243    2.1937   -1.7228 H   0  0  0  0  0  0  0  0  0  0  0  0
    1.2576    0.1532   -5.1284 H   0  0  0  0  0  0  0  0  0  0  0  0
    3.1424    2.8961   -2.4947 H   0  0  0  0  0  0  0  0  0  0  0  0
   -1.6438   -3.4183   -5.3508 H   0  0  0  0  0  0  0  0  0  0  0  0
    1.0759    3.2914    4.4715 H   0  0  0  0  0  0  0  0  0  0  0  0
   -2.7498   -4.4856    3.9844 H   0  0  0  0  0  0  0  0  0  0  0  0
    3.6769   -5.2218    1.2668 H   0  0  0  0  0  0  0  0  0  0  0  0
   -4.2696    3.9476   -0.0256 H   0  0  0  0  0  0  0  0  0  0  0  0
    2.7510    2.0183   -4.7525 H   0  0  0  0  0  0  0  0  0  0  0  0
  1  5  1  0  0  0  0
  1  4  1  0  0  0  0
  1  3  1  0  0  0  0
  2  1  1  0  0  0  0
  3 10  1  0  0  0  0
  3 11  1  0  0  0  0
  4 12  1  0  0  0  0
  4 13  1  0  0  0  0
  5 14  1  0  0  0  0
  6  1  1  0  0  0  0
  6 16  1  0  0  0  0
  7 19  1  0  0  0  0
  7  1  1  0  0  0  0
  8 18  2  0  0  0  0
  8  2  1  0  0  0  0
  9  2  1  0  0  0  0
  9 38  1  0  0  0  0
 10 22  1  0  0  0  0
 11 23  2  0  0  0  0
 12 24  1  0  0  0  0
 13 25  2  0  0  0  0
 14 26  1  0  0  0  0
 14 12  2  0  0  0  0
 15 27  2  0  0  0  0
 15  5  1  0  0  0  0
 16 28  1  0  0  0  0
 16 10  2  0  0  0  0
 17 29  2  0  0  0  0
 17  6  1  0  0  0  0
 18  7  1  0  0  0  0
 19 43  1  0  0  0  0
 20  8  1  0  0  0  0
 21  9  2  0  0  0  0
 22 46  1  0  0  0  0
 22 33  2  0  0  0  0
 23 33  1  0  0  0  0
 23 47  1  0  0  0  0
 24 48  1  0  0  0  0
 24 34  2  0  0  0  0
 25 49  1  0  0  0  0
 25 34  1  0  0  0  0
 26 50  1  0  0  0  0
 27 35  1  0  0  0  0
 28 52  1  0  0  0  0
 29 36  1  0  0  0  0
 30 37  2  0  0  0  0
 30 18  1  0  0  0  0
 31 55  1  0  0  0  0
 31 19  2  0  0  0  0
 32 20  2  0  0  0  0
 32 21  1  0  0  0  0
 33 57  1  0  0  0  0
 34 58  1  0  0  0  0
 35 59  1  0  0  0  0
 35 26  2  0  0  0  0
 36 60  1  0  0  0  0
 36 28  2  0  0  0  0
 37 31  1  0  0  0  0
 39 11  1  0  0  0  0
 40 13  1  0  0  0  0
 41 15  1  0  0  0  0
 42 17  1  0  0  0  0
 44 20  1  0  0  0  0
 45 21  1  0  0  0  0
 51 27  1  0  0  0  0
 53 29  1  0  0  0  0
 54 30  1  0  0  0  0
 56 32  1  0  0  0  0
 61 37  1  0  0  0  0
M  END
$$$$
