small_conformer.xyz
 OpenBabel09222217013D

 13 12  0  0  1  0  0  0  0  0999 V2000
   -7.7569   -1.1670   -0.1262 C   0  0  0  0  0  0  0  0  0  0  0  0
   -6.2375   -1.1343   -0.1138 C   0  0  1  0  0  0  0  0  0  0  0  0
   -8.1693   -0.2356   -0.5257 H   0  0  0  0  0  0  0  0  0  0  0  0
   -8.1548   -1.3237    0.8824 H   0  0  0  0  0  0  0  0  0  0  0  0
   -8.1163   -2.0001   -0.7397 H   0  0  0  0  0  0  0  0  0  0  0  0
   -5.7060    0.0144    0.7558 C   0  0  0  0  0  0  0  0  0  0  0  0
   -5.8623   -1.0251   -1.1370 H   0  0  0  0  0  0  0  0  0  0  0  0
   -5.7525   -2.3915    0.3587 O   0  0  0  0  0  0  0  0  0  0  0  0
   -6.0823    0.9782    0.3996 H   0  0  0  0  0  0  0  0  0  0  0  0
   -4.2815    0.0644    0.7461 O   0  0  0  0  0  0  0  0  0  0  0  0
   -6.0107   -0.1148    1.7995 H   0  0  0  0  0  0  0  0  0  0  0  0
   -3.9772   -0.2205   -0.1340 H   0  0  0  0  0  0  0  0  0  0  0  0
   -5.8712   -2.4156    1.3254 H   0  0  0  0  0  0  0  0  0  0  0  0
  1  2  1  0  0  0  0
  1  4  1  0  0  0  0
  2  7  1  6  0  0  0
  2  8  1  0  0  0  0
  2  6  1  0  0  0  0
  3  1  1  0  0  0  0
  5  1  1  0  0  0  0
  6 11  1  0  0  0  0
  8 13  1  0  0  0  0
  9  6  1  0  0  0  0
 10  6  1  0  0  0  0
 12 10  1  0  0  0  0
M  END
$$$$
