
  Avogadro

  4  3  0  0  0  0  0  0  0  0999 V2000
   -2.6293    0.7763   -0.0000 C   0  0  0  0  0  0  0  0  0  0  0  0
   -1.7676    1.4750    0.0000 H   0  0  0  0  0  0  0  0  0  0  0  0
   -3.6651    1.1734    0.0000 H   0  0  0  0  0  0  0  0  0  0  0  0
   -2.4553   -0.3195    0.0000 H   0  0  0  0  0  0  0  0  0  0  0  0
  1  2  1  0  0  0  0
  1  3  1  0  0  0  0
  1  4  1  0  0  0  0
M  END
