
  Avogadro

  3  2  0  0  0  0  0  0  0  0999 V2000
   -3.4577    2.0927   -0.8367 N   0  0  0  0  0  0  0  0  0  0  0  0
   -2.5238    1.9079   -0.4461 H   0  0  0  0  0  0  0  0  0  0  0  0
   -3.9133    3.0007   -0.6734 H   0  0  0  0  0  0  0  0  0  0  0  0
  1  2  1  0  0  0  0
  1  3  1  0  0  0  0
M  END
